/*---------------------------------------------------------------------------*\
  =========                 |
  \\      /  F ield         | OpenFOAM: The Open Source CFD Toolbox
   \\    /   O peration     | Website:  https://openfoam.org
    \\  /    A nd           | Version:  13
     \\/     M anipulation  |
\*---------------------------------------------------------------------------*/
Build  : 13-441953dfbb42
Exec   : foamRun
Date   : May 17 2026
Time   : 12:48:34
Host   : "B3D-adscfd01"
PID    : 3382515
I/O    : uncollated
Case   : /home/ads-user/openfoam/openfoam-T3A-transition/studies/Tu6
nProcs : 1
sigFpe : Enabling floating point exception trapping (FOAM_SIGFPE).
fileModificationChecking : Monitoring run-time modified files using timeStampMaster (fileModificationSkew 10)
allowSystemOperations : Allowing user-supplied system call operations

// * * * * * * * * * * * * * * * * * * * * * * * * * * * * * * * * * * * * * //
Create time

Create mesh for time = 0

Selecting solver incompressibleFluid
Selecting viscosity model constant
Selecting turbulence model type RAS
    Selecting RAS turbulence model kOmegaSSTLM
No MRF models present

Selecting patchDistMethod meshWave

SIMPLE: Convergence criteria found
        p: tolerance 1e-05
        U: tolerance 1e-06
        "(k|omega|gammaInt|ReThetat)": tolerance 0.0001


SIMPLE: Operating solver in steady-state mode with 1 outer corrector
SIMPLE: Operating solver in SIMPLE mode



Starting time loop

wallShearStress wallShearStress:
    processing all wall patches

Reading set description:
    line

Reading set description:
    line

Time = 1s

smoothSolver:  Solving for Ux, Initial residual = 1, Final residual = 0.0711331, No Iterations 5
smoothSolver:  Solving for Uy, Initial residual = 1, Final residual = 0.0936069, No Iterations 3
GAMG:  Solving for p, Initial residual = 1, Final residual = 0.0774666, No Iterations 28
time step continuity errors : sum local = 0.000108576, global = -3.56254e-06, cumulative = -3.56254e-06
smoothSolver:  Solving for ReThetat, Initial residual = 1, Final residual = 0.0329643, No Iterations 1
smoothSolver:  Solving for gammaInt, Initial residual = 1, Final residual = 1.10551, No Iterations 10
smoothSolver:  Solving for omega, Initial residual = 0.0488787, Final residual = 0.00444488, No Iterations 3
smoothSolver:  Solving for k, Initial residual = 1, Final residual = 0.0703602, No Iterations 1
ExecutionTime = 0.302264 s  ClockTime = 0 s

Time = 2s

smoothSolver:  Solving for Ux, Initial residual = 0.186498, Final residual = 0.0140226, No Iterations 2
smoothSolver:  Solving for Uy, Initial residual = 0.0370464, Final residual = 0.00220263, No Iterations 3
GAMG:  Solving for p, Initial residual = 0.00280488, Final residual = 0.000233586, No Iterations 16
time step continuity errors : sum local = 0.00146261, global = 0.000201922, cumulative = 0.000198359
smoothSolver:  Solving for ReThetat, Initial residual = 0.952311, Final residual = 0.0161306, No Iterations 1
smoothSolver:  Solving for gammaInt, Initial residual = 1, Final residual = 0.0184372, No Iterations 1
smoothSolver:  Solving for omega, Initial residual = 0.132492, Final residual = 0.000453393, No Iterations 1
smoothSolver:  Solving for k, Initial residual = 0.289481, Final residual = 0.0111982, No Iterations 2
ExecutionTime = 0.350181 s  ClockTime = 0 s

Time = 3s

smoothSolver:  Solving for Ux, Initial residual = 0.0328052, Final residual = 0.00319306, No Iterations 3
smoothSolver:  Solving for Uy, Initial residual = 0.0158975, Final residual = 0.00101697, No Iterations 3
GAMG:  Solving for p, Initial residual = 0.00706712, Final residual = 0.000639549, No Iterations 12
time step continuity errors : sum local = 0.00114156, global = 0.000272502, cumulative = 0.000470861
smoothSolver:  Solving for ReThetat, Initial residual = 0.49314, Final residual = 0.0108926, No Iterations 1
smoothSolver:  Solving for gammaInt, Initial residual = 0.0379189, Final residual = 0.00307249, No Iterations 2
smoothSolver:  Solving for omega, Initial residual = 0.00775444, Final residual = 0.000109275, No Iterations 1
smoothSolver:  Solving for k, Initial residual = 0.152256, Final residual = 0.00889867, No Iterations 2
ExecutionTime = 0.397087 s  ClockTime = 0 s

Time = 4s

smoothSolver:  Solving for Ux, Initial residual = 0.01416, Final residual = 0.00125275, No Iterations 4
smoothSolver:  Solving for Uy, Initial residual = 0.0110779, Final residual = 0.000811013, No Iterations 3
GAMG:  Solving for p, Initial residual = 0.0100158, Final residual = 0.000882536, No Iterations 10
time step continuity errors : sum local = 0.000622639, global = 0.000121149, cumulative = 0.000592011
smoothSolver:  Solving for ReThetat, Initial residual = 0.264879, Final residual = 0.00682442, No Iterations 1
smoothSolver:  Solving for gammaInt, Initial residual = 0.0102804, Final residual = 0.000407722, No Iterations 3
smoothSolver:  Solving for omega, Initial residual = 0.00781889, Final residual = 7.36041e-05, No Iterations 1
smoothSolver:  Solving for k, Initial residual = 0.0958109, Final residual = 0.00792916, No Iterations 2
ExecutionTime = 0.441196 s  ClockTime = 0 s

Time = 5s

smoothSolver:  Solving for Ux, Initial residual = 0.0090096, Final residual = 0.000595249, No Iterations 5
smoothSolver:  Solving for Uy, Initial residual = 0.00828296, Final residual = 0.000723653, No Iterations 3
GAMG:  Solving for p, Initial residual = 0.0147774, Final residual = 0.000774709, No Iterations 8
time step continuity errors : sum local = 0.000310904, global = 5.77165e-05, cumulative = 0.000649727
smoothSolver:  Solving for ReThetat, Initial residual = 0.176809, Final residual = 0.00494603, No Iterations 1
smoothSolver:  Solving for gammaInt, Initial residual = 0.00697177, Final residual = 0.000389165, No Iterations 2
smoothSolver:  Solving for omega, Initial residual = 0.0031419, Final residual = 6.72982e-05, No Iterations 1
smoothSolver:  Solving for k, Initial residual = 0.0685666, Final residual = 0.00440118, No Iterations 3
ExecutionTime = 0.482029 s  ClockTime = 0 s

Time = 6s

smoothSolver:  Solving for Ux, Initial residual = 0.0069397, Final residual = 0.000475726, No Iterations 5
smoothSolver:  Solving for Uy, Initial residual = 0.00677688, Final residual = 0.000392337, No Iterations 4
GAMG:  Solving for p, Initial residual = 0.0157181, Final residual = 0.00078265, No Iterations 8
time step continuity errors : sum local = 0.000281358, global = 4.60749e-05, cumulative = 0.000695802
smoothSolver:  Solving for ReThetat, Initial residual = 0.131888, Final residual = 0.00395078, No Iterations 1
smoothSolver:  Solving for gammaInt, Initial residual = 0.0120524, Final residual = 0.000686428, No Iterations 2
smoothSolver:  Solving for omega, Initial residual = 0.0023102, Final residual = 4.55847e-05, No Iterations 1
smoothSolver:  Solving for k, Initial residual = 0.0523746, Final residual = 0.00413581, No Iterations 3
ExecutionTime = 0.524764 s  ClockTime = 0 s

Time = 7s

smoothSolver:  Solving for Ux, Initial residual = 0.00531633, Final residual = 0.00040143, No Iterations 5
smoothSolver:  Solving for Uy, Initial residual = 0.00549997, Final residual = 0.000356808, No Iterations 4
GAMG:  Solving for p, Initial residual = 0.0134557, Final residual = 0.000788829, No Iterations 8
time step continuity errors : sum local = 0.000267414, global = 5.62652e-05, cumulative = 0.000752067
smoothSolver:  Solving for ReThetat, Initial residual = 0.104373, Final residual = 0.00324464, No Iterations 1
smoothSolver:  Solving for gammaInt, Initial residual = 0.00567879, Final residual = 0.000246463, No Iterations 2
smoothSolver:  Solving for omega, Initial residual = 0.00115821, Final residual = 3.0903e-05, No Iterations 1
smoothSolver:  Solving for k, Initial residual = 0.0423518, Final residual = 0.00383028, No Iterations 3
ExecutionTime = 0.567826 s  ClockTime = 0 s

Time = 8s

smoothSolver:  Solving for Ux, Initial residual = 0.00455229, Final residual = 0.000344616, No Iterations 5
smoothSolver:  Solving for Uy, Initial residual = 0.00473946, Final residual = 0.000314467, No Iterations 4
GAMG:  Solving for p, Initial residual = 0.0125187, Final residual = 0.00108866, No Iterations 7
time step continuity errors : sum local = 0.000370985, global = -2.98068e-05, cumulative = 0.00072226
smoothSolver:  Solving for ReThetat, Initial residual = 0.0858214, Final residual = 0.00271805, No Iterations 1
smoothSolver:  Solving for gammaInt, Initial residual = 0.00488294, Final residual = 0.000155444, No Iterations 2
smoothSolver:  Solving for omega, Initial residual = 0.000759385, Final residual = 2.48412e-05, No Iterations 1
smoothSolver:  Solving for k, Initial residual = 0.0354567, Final residual = 0.00348168, No Iterations 3
ExecutionTime = 0.609394 s  ClockTime = 0 s

Time = 9s

smoothSolver:  Solving for Ux, Initial residual = 0.00390922, Final residual = 0.000302926, No Iterations 5
smoothSolver:  Solving for Uy, Initial residual = 0.00416096, Final residual = 0.000271081, No Iterations 4
GAMG:  Solving for p, Initial residual = 0.0119684, Final residual = 0.000888207, No Iterations 6
time step continuity errors : sum local = 0.000273303, global = 5.19118e-06, cumulative = 0.000727452
smoothSolver:  Solving for ReThetat, Initial residual = 0.0725184, Final residual = 0.00231234, No Iterations 1
smoothSolver:  Solving for gammaInt, Initial residual = 0.0144267, Final residual = 0.000493152, No Iterations 2
smoothSolver:  Solving for omega, Initial residual = 0.000410822, Final residual = 1.54807e-05, No Iterations 1
smoothSolver:  Solving for k, Initial residual = 0.0305173, Final residual = 0.00180186, No Iterations 4
ExecutionTime = 0.648707 s  ClockTime = 0 s

Time = 10s

smoothSolver:  Solving for Ux, Initial residual = 0.00331415, Final residual = 0.000267274, No Iterations 5
smoothSolver:  Solving for Uy, Initial residual = 0.00376496, Final residual = 0.000227144, No Iterations 4
GAMG:  Solving for p, Initial residual = 0.0113986, Final residual = 0.000816777, No Iterations 6
time step continuity errors : sum local = 0.000221231, global = -7.53757e-07, cumulative = 0.000726698
smoothSolver:  Solving for ReThetat, Initial residual = 0.0627018, Final residual = 0.00201569, No Iterations 1
smoothSolver:  Solving for gammaInt, Initial residual = 0.0052712, Final residual = 0.000156339, No Iterations 2
smoothSolver:  Solving for omega, Initial residual = 0.000269207, Final residual = 1.52866e-05, No Iterations 1
smoothSolver:  Solving for k, Initial residual = 0.0268524, Final residual = 0.00151284, No Iterations 4
ExecutionTime = 0.689753 s  ClockTime = 0 s

Time = 11s

smoothSolver:  Solving for Ux, Initial residual = 0.00296439, Final residual = 0.000241186, No Iterations 5
smoothSolver:  Solving for Uy, Initial residual = 0.00350268, Final residual = 0.000188726, No Iterations 4
GAMG:  Solving for p, Initial residual = 0.0128399, Final residual = 0.00124575, No Iterations 5
time step continuity errors : sum local = 0.000267125, global = -3.52686e-06, cumulative = 0.000723171
smoothSolver:  Solving for ReThetat, Initial residual = 0.0551505, Final residual = 0.00177218, No Iterations 1
smoothSolver:  Solving for gammaInt, Initial residual = 0.0124185, Final residual = 0.000281219, No Iterations 2
smoothSolver:  Solving for omega, Initial residual = 0.000150864, Final residual = 1.07414e-05, No Iterations 1
smoothSolver:  Solving for k, Initial residual = 0.0240803, Final residual = 0.00229308, No Iterations 3
ExecutionTime = 0.728992 s  ClockTime = 0 s

Time = 12s

smoothSolver:  Solving for Ux, Initial residual = 0.00258068, Final residual = 0.000216901, No Iterations 5
smoothSolver:  Solving for Uy, Initial residual = 0.00326763, Final residual = 0.000303218, No Iterations 3
GAMG:  Solving for p, Initial residual = 0.0131239, Final residual = 0.00124059, No Iterations 5
time step continuity errors : sum local = 0.000208834, global = 8.58329e-06, cumulative = 0.000731754
smoothSolver:  Solving for ReThetat, Initial residual = 0.0491321, Final residual = 0.00154781, No Iterations 1
smoothSolver:  Solving for gammaInt, Initial residual = 0.00836377, Final residual = 0.000225321, No Iterations 2
smoothSolver:  Solving for omega, Initial residual = 0.000106457, Final residual = 4.536e-06, No Iterations 2
smoothSolver:  Solving for k, Initial residual = 0.0218487, Final residual = 0.00191688, No Iterations 3
ExecutionTime = 0.766888 s  ClockTime = 1 s

Time = 13s

smoothSolver:  Solving for Ux, Initial residual = 0.00231598, Final residual = 0.000198483, No Iterations 5
smoothSolver:  Solving for Uy, Initial residual = 0.00308804, Final residual = 0.000264555, No Iterations 3
GAMG:  Solving for p, Initial residual = 0.0156349, Final residual = 0.001452, No Iterations 5
time step continuity errors : sum local = 0.000178118, global = -8.06616e-06, cumulative = 0.000723688
smoothSolver:  Solving for ReThetat, Initial residual = 0.0442257, Final residual = 0.00136676, No Iterations 1
smoothSolver:  Solving for gammaInt, Initial residual = 0.0116639, Final residual = 0.00083615, No Iterations 1
smoothSolver:  Solving for omega, Initial residual = 6.0526e-05, Final residual = 3.57075e-06, No Iterations 2
smoothSolver:  Solving for k, Initial residual = 0.0200403, Final residual = 0.00156629, No Iterations 3
ExecutionTime = 0.805436 s  ClockTime = 1 s

Time = 14s

smoothSolver:  Solving for Ux, Initial residual = 0.00207477, Final residual = 0.000180608, No Iterations 5
smoothSolver:  Solving for Uy, Initial residual = 0.00290587, Final residual = 0.000234161, No Iterations 3
GAMG:  Solving for p, Initial residual = 0.0190958, Final residual = 0.0016586, No Iterations 7
time step continuity errors : sum local = 0.000135091, global = -3.97471e-05, cumulative = 0.000683941
smoothSolver:  Solving for ReThetat, Initial residual = 0.041463, Final residual = 0.00121298, No Iterations 1
smoothSolver:  Solving for gammaInt, Initial residual = 0.0134059, Final residual = 0.000316533, No Iterations 2
smoothSolver:  Solving for omega, Initial residual = 4.95108e-05, Final residual = 3.37434e-06, No Iterations 2
smoothSolver:  Solving for k, Initial residual = 0.0185035, Final residual = 0.00125298, No Iterations 3
ExecutionTime = 0.847139 s  ClockTime = 1 s

Time = 15s

smoothSolver:  Solving for Ux, Initial residual = 0.00189996, Final residual = 0.000167809, No Iterations 5
smoothSolver:  Solving for Uy, Initial residual = 0.00275746, Final residual = 0.000212564, No Iterations 3
GAMG:  Solving for p, Initial residual = 0.0331779, Final residual = 0.00331084, No Iterations 6
time step continuity errors : sum local = 0.000137165, global = 3.02035e-05, cumulative = 0.000714145
smoothSolver:  Solving for ReThetat, Initial residual = 0.0395044, Final residual = 0.0010804, No Iterations 1
smoothSolver:  Solving for gammaInt, Initial residual = 0.00818487, Final residual = 0.000448825, No Iterations 1
smoothSolver:  Solving for omega, Initial residual = 3.04521e-05, Final residual = 2.84492e-06, No Iterations 2
smoothSolver:  Solving for k, Initial residual = 0.0170524, Final residual = 0.000969027, No Iterations 3
ExecutionTime = 0.886323 s  ClockTime = 1 s

Time = 16s

smoothSolver:  Solving for Ux, Initial residual = 0.0017571, Final residual = 0.000154329, No Iterations 5
smoothSolver:  Solving for Uy, Initial residual = 0.00258484, Final residual = 0.00019845, No Iterations 3
GAMG:  Solving for p, Initial residual = 0.0706687, Final residual = 0.0064738, No Iterations 8
time step continuity errors : sum local = 0.000113093, global = 3.06125e-05, cumulative = 0.000744757
smoothSolver:  Solving for ReThetat, Initial residual = 0.0370217, Final residual = 0.000960495, No Iterations 1
smoothSolver:  Solving for gammaInt, Initial residual = 0.0114287, Final residual = 0.000232407, No Iterations 2
smoothSolver:  Solving for omega, Initial residual = 2.82741e-05, Final residual = 2.58288e-06, No Iterations 2
smoothSolver:  Solving for k, Initial residual = 0.0156583, Final residual = 0.000739317, No Iterations 3
ExecutionTime = 0.927782 s  ClockTime = 1 s

Time = 17s

smoothSolver:  Solving for Ux, Initial residual = 0.00162369, Final residual = 0.000144203, No Iterations 5
smoothSolver:  Solving for Uy, Initial residual = 0.00243959, Final residual = 0.0001897, No Iterations 3
GAMG:  Solving for p, Initial residual = 0.0243381, Final residual = 0.0022973, No Iterations 7
time step continuity errors : sum local = 0.000104919, global = -3.43028e-05, cumulative = 0.000710454
smoothSolver:  Solving for ReThetat, Initial residual = 0.0342019, Final residual = 0.000852403, No Iterations 1
smoothSolver:  Solving for gammaInt, Initial residual = 0.00709162, Final residual = 0.000490227, No Iterations 1
smoothSolver:  Solving for omega, Initial residual = 1.90038e-05, Final residual = 9.47138e-07, No Iterations 3
smoothSolver:  Solving for k, Initial residual = 0.0141862, Final residual = 0.001314, No Iterations 2
ExecutionTime = 0.968084 s  ClockTime = 1 s

Time = 18s

smoothSolver:  Solving for Ux, Initial residual = 0.00152016, Final residual = 0.000133477, No Iterations 5
smoothSolver:  Solving for Uy, Initial residual = 0.00227439, Final residual = 0.000184772, No Iterations 3
GAMG:  Solving for p, Initial residual = 0.0148964, Final residual = 0.00127951, No Iterations 7
time step continuity errors : sum local = 8.61939e-05, global = -2.55042e-05, cumulative = 0.00068495
smoothSolver:  Solving for ReThetat, Initial residual = 0.0311939, Final residual = 0.000734439, No Iterations 1
smoothSolver:  Solving for gammaInt, Initial residual = 0.00678058, Final residual = 0.000397756, No Iterations 1
smoothSolver:  Solving for omega, Initial residual = 1.87296e-05, Final residual = 1.82744e-06, No Iterations 2
smoothSolver:  Solving for k, Initial residual = 0.012734, Final residual = 0.00102299, No Iterations 2
ExecutionTime = 1.00981 s  ClockTime = 1 s

Time = 19s

smoothSolver:  Solving for Ux, Initial residual = 0.00140903, Final residual = 0.000125045, No Iterations 5
smoothSolver:  Solving for Uy, Initial residual = 0.00213804, Final residual = 0.00018097, No Iterations 3
GAMG:  Solving for p, Initial residual = 0.0103769, Final residual = 0.000969732, No Iterations 6
time step continuity errors : sum local = 8.26907e-05, global = 1.95509e-05, cumulative = 0.000704501
smoothSolver:  Solving for ReThetat, Initial residual = 0.028385, Final residual = 0.000640334, No Iterations 1
smoothSolver:  Solving for gammaInt, Initial residual = 0.00622354, Final residual = 0.000341465, No Iterations 1
smoothSolver:  Solving for omega, Initial residual = 1.44181e-05, Final residual = 6.28252e-07, No Iterations 3
smoothSolver:  Solving for k, Initial residual = 0.0112664, Final residual = 0.000785263, No Iterations 2
ExecutionTime = 1.05043 s  ClockTime = 1 s

Time = 20s

smoothSolver:  Solving for Ux, Initial residual = 0.00131578, Final residual = 0.000116384, No Iterations 5
smoothSolver:  Solving for Uy, Initial residual = 0.00200281, Final residual = 0.00017757, No Iterations 3
GAMG:  Solving for p, Initial residual = 0.00840731, Final residual = 0.000629926, No Iterations 7
time step continuity errors : sum local = 6.03686e-05, global = -1.3771e-05, cumulative = 0.00069073
smoothSolver:  Solving for ReThetat, Initial residual = 0.0256938, Final residual = 0.000561284, No Iterations 1
smoothSolver:  Solving for gammaInt, Initial residual = 0.00841046, Final residual = 0.000739689, No Iterations 1
smoothSolver:  Solving for omega, Initial residual = 1.39673e-05, Final residual = 1.27302e-06, No Iterations 2
smoothSolver:  Solving for k, Initial residual = 0.00985501, Final residual = 0.000607954, No Iterations 2
ExecutionTime = 1.09126 s  ClockTime = 1 s

Time = 21s

smoothSolver:  Solving for Ux, Initial residual = 0.00122446, Final residual = 0.000109138, No Iterations 5
smoothSolver:  Solving for Uy, Initial residual = 0.00188977, Final residual = 0.000172823, No Iterations 3
GAMG:  Solving for p, Initial residual = 0.00695312, Final residual = 0.000664044, No Iterations 6
time step continuity errors : sum local = 6.74406e-05, global = 1.2657e-05, cumulative = 0.000703387
smoothSolver:  Solving for ReThetat, Initial residual = 0.0232558, Final residual = 0.00049432, No Iterations 1
smoothSolver:  Solving for gammaInt, Initial residual = 0.00355428, Final residual = 0.00025378, No Iterations 1
smoothSolver:  Solving for omega, Initial residual = 1.14924e-05, Final residual = 1.10181e-06, No Iterations 2
smoothSolver:  Solving for k, Initial residual = 0.00848074, Final residual = 0.000469879, No Iterations 2
ExecutionTime = 1.13169 s  ClockTime = 1 s

Time = 22s

smoothSolver:  Solving for Ux, Initial residual = 0.00114511, Final residual = 0.000102055, No Iterations 5
smoothSolver:  Solving for Uy, Initial residual = 0.00179617, Final residual = 0.000166824, No Iterations 3
GAMG:  Solving for p, Initial residual = 0.00622077, Final residual = 0.000507251, No Iterations 7
time step continuity errors : sum local = 5.19935e-05, global = -1.33017e-05, cumulative = 0.000690085
smoothSolver:  Solving for ReThetat, Initial residual = 0.0209483, Final residual = 0.000435242, No Iterations 1
smoothSolver:  Solving for gammaInt, Initial residual = 0.00303568, Final residual = 0.000203447, No Iterations 1
smoothSolver:  Solving for omega, Initial residual = 1.12865e-05, Final residual = 9.3411e-07, No Iterations 2
smoothSolver:  Solving for k, Initial residual = 0.00718892, Final residual = 0.000365134, No Iterations 2
ExecutionTime = 1.17246 s  ClockTime = 1 s

Time = 23s

smoothSolver:  Solving for Ux, Initial residual = 0.00107262, Final residual = 9.58906e-05, No Iterations 5
smoothSolver:  Solving for Uy, Initial residual = 0.00171313, Final residual = 0.000159373, No Iterations 3
GAMG:  Solving for p, Initial residual = 0.00575986, Final residual = 0.000566109, No Iterations 7
time step continuity errors : sum local = 5.60394e-05, global = -1.5889e-05, cumulative = 0.000674196
smoothSolver:  Solving for ReThetat, Initial residual = 0.0188276, Final residual = 0.000383635, No Iterations 1
smoothSolver:  Solving for gammaInt, Initial residual = 0.00231525, Final residual = 0.000129713, No Iterations 1
smoothSolver:  Solving for omega, Initial residual = 9.60575e-06, Final residual = 7.89809e-07, No Iterations 2
smoothSolver:  Solving for k, Initial residual = 0.00600471, Final residual = 0.000287769, No Iterations 2
ExecutionTime = 1.21594 s  ClockTime = 1 s

Time = 24s

smoothSolver:  Solving for Ux, Initial residual = 0.00101082, Final residual = 9.00089e-05, No Iterations 5
smoothSolver:  Solving for Uy, Initial residual = 0.00165172, Final residual = 0.000150801, No Iterations 3
GAMG:  Solving for p, Initial residual = 0.00578705, Final residual = 0.000571748, No Iterations 8
time step continuity errors : sum local = 5.18584e-05, global = 1.39195e-05, cumulative = 0.000688116
smoothSolver:  Solving for ReThetat, Initial residual = 0.0168456, Final residual = 0.000337254, No Iterations 1
smoothSolver:  Solving for gammaInt, Initial residual = 0.00171132, Final residual = 8.35773e-05, No Iterations 1
smoothSolver:  Solving for omega, Initial residual = 8.95133e-06, Final residual = 6.74281e-07, No Iterations 2
smoothSolver:  Solving for k, Initial residual = 0.00494635, Final residual = 0.00023156, No Iterations 2
ExecutionTime = 1.25775 s  ClockTime = 1 s

Time = 25s

smoothSolver:  Solving for Ux, Initial residual = 0.000953926, Final residual = 8.47893e-05, No Iterations 5
smoothSolver:  Solving for Uy, Initial residual = 0.00158529, Final residual = 0.000141349, No Iterations 3
GAMG:  Solving for p, Initial residual = 0.00619654, Final residual = 0.000564528, No Iterations 9
time step continuity errors : sum local = 4.47893e-05, global = -1.60463e-05, cumulative = 0.000672069
smoothSolver:  Solving for ReThetat, Initial residual = 0.0149401, Final residual = 0.000294896, No Iterations 1
smoothSolver:  Solving for gammaInt, Initial residual = 0.0011625, Final residual = 5.47673e-05, No Iterations 1
smoothSolver:  Solving for omega, Initial residual = 7.78675e-06, Final residual = 5.7824e-07, No Iterations 2
smoothSolver:  Solving for k, Initial residual = 0.00402208, Final residual = 0.000191458, No Iterations 2
ExecutionTime = 1.29996 s  ClockTime = 1 s

Time = 26s

smoothSolver:  Solving for Ux, Initial residual = 0.000903404, Final residual = 7.98385e-05, No Iterations 5
smoothSolver:  Solving for Uy, Initial residual = 0.0015196, Final residual = 0.000131443, No Iterations 3
GAMG:  Solving for p, Initial residual = 0.00678056, Final residual = 0.000647152, No Iterations 6
time step continuity errors : sum local = 4.38794e-05, global = 4.11239e-06, cumulative = 0.000676182
smoothSolver:  Solving for ReThetat, Initial residual = 0.0132095, Final residual = 0.000257402, No Iterations 1
smoothSolver:  Solving for gammaInt, Initial residual = 0.000751671, Final residual = 3.56383e-05, No Iterations 1
smoothSolver:  Solving for omega, Initial residual = 7.04442e-06, Final residual = 5.01576e-07, No Iterations 2
smoothSolver:  Solving for k, Initial residual = 0.0032321, Final residual = 0.000164155, No Iterations 2
ExecutionTime = 1.33875 s  ClockTime = 1 s

Time = 27s

smoothSolver:  Solving for Ux, Initial residual = 0.000855449, Final residual = 7.54038e-05, No Iterations 5
smoothSolver:  Solving for Uy, Initial residual = 0.00143965, Final residual = 0.000121263, No Iterations 3
GAMG:  Solving for p, Initial residual = 0.00798305, Final residual = 0.000792515, No Iterations 9
time step continuity errors : sum local = 4.34674e-05, global = -1.1908e-05, cumulative = 0.000664274
smoothSolver:  Solving for ReThetat, Initial residual = 0.0115888, Final residual = 0.000223652, No Iterations 1
smoothSolver:  Solving for gammaInt, Initial residual = 0.000618168, Final residual = 3.01634e-05, No Iterations 1
smoothSolver:  Solving for omega, Initial residual = 6.17869e-06, Final residual = 4.38561e-07, No Iterations 2
smoothSolver:  Solving for k, Initial residual = 0.00257163, Final residual = 0.000145816, No Iterations 2
ExecutionTime = 1.38213 s  ClockTime = 1 s

Time = 28s

smoothSolver:  Solving for Ux, Initial residual = 0.000812207, Final residual = 7.12175e-05, No Iterations 5
smoothSolver:  Solving for Uy, Initial residual = 0.00137001, Final residual = 0.000111462, No Iterations 3
GAMG:  Solving for p, Initial residual = 0.0101186, Final residual = 0.000820435, No Iterations 7
time step continuity errors : sum local = 3.33095e-05, global = 2.92176e-06, cumulative = 0.000667196
smoothSolver:  Solving for ReThetat, Initial residual = 0.0101428, Final residual = 0.000194852, No Iterations 1
smoothSolver:  Solving for gammaInt, Initial residual = 0.000862663, Final residual = 3.02048e-05, No Iterations 1
smoothSolver:  Solving for omega, Initial residual = 5.50616e-06, Final residual = 3.87969e-07, No Iterations 2
smoothSolver:  Solving for k, Initial residual = 0.00202815, Final residual = 0.00013404, No Iterations 2
ExecutionTime = 1.4218 s  ClockTime = 1 s

Time = 29s

smoothSolver:  Solving for Ux, Initial residual = 0.000770715, Final residual = 6.74447e-05, No Iterations 5
smoothSolver:  Solving for Uy, Initial residual = 0.00128799, Final residual = 0.00010194, No Iterations 3
GAMG:  Solving for p, Initial residual = 0.0151356, Final residual = 0.00131641, No Iterations 9
time step continuity errors : sum local = 3.38856e-05, global = -7.85818e-06, cumulative = 0.000659337
smoothSolver:  Solving for ReThetat, Initial residual = 0.00885124, Final residual = 0.000173937, No Iterations 1
smoothSolver:  Solving for gammaInt, Initial residual = 0.00115731, Final residual = 2.64356e-05, No Iterations 1
smoothSolver:  Solving for omega, Initial residual = 4.83576e-06, Final residual = 3.46269e-07, No Iterations 2
smoothSolver:  Solving for k, Initial residual = 0.00158941, Final residual = 0.000127039, No Iterations 2
ExecutionTime = 1.46238 s  ClockTime = 1 s

Time = 30s

smoothSolver:  Solving for Ux, Initial residual = 0.00073457, Final residual = 6.3908e-05, No Iterations 5
smoothSolver:  Solving for Uy, Initial residual = 0.00121543, Final residual = 9.33932e-05, No Iterations 3
GAMG:  Solving for p, Initial residual = 0.0281835, Final residual = 0.00264693, No Iterations 8
time step continuity errors : sum local = 3.48624e-05, global = -1.34961e-05, cumulative = 0.000645841
smoothSolver:  Solving for ReThetat, Initial residual = 0.00774462, Final residual = 0.000159409, No Iterations 1
smoothSolver:  Solving for gammaInt, Initial residual = 0.00144377, Final residual = 2.77243e-05, No Iterations 1
smoothSolver:  Solving for omega, Initial residual = 4.28131e-06, Final residual = 3.11749e-07, No Iterations 2
smoothSolver:  Solving for k, Initial residual = 0.00134935, Final residual = 0.000123781, No Iterations 2
ExecutionTime = 1.50169 s  ClockTime = 1 s

Time = 31s

smoothSolver:  Solving for Ux, Initial residual = 0.000698749, Final residual = 6.07131e-05, No Iterations 5
smoothSolver:  Solving for Uy, Initial residual = 0.00113579, Final residual = 8.55584e-05, No Iterations 3
GAMG:  Solving for p, Initial residual = 0.0129177, Final residual = 0.00113873, No Iterations 10
time step continuity errors : sum local = 3.11739e-05, global = -1.03745e-05, cumulative = 0.000635467
smoothSolver:  Solving for ReThetat, Initial residual = 0.0068094, Final residual = 0.000147322, No Iterations 1
smoothSolver:  Solving for gammaInt, Initial residual = 0.00169498, Final residual = 2.93865e-05, No Iterations 1
smoothSolver:  Solving for omega, Initial residual = 3.76604e-06, Final residual = 2.82515e-07, No Iterations 2
smoothSolver:  Solving for k, Initial residual = 0.00122455, Final residual = 6.30934e-05, No Iterations 3
ExecutionTime = 1.54557 s  ClockTime = 1 s

Time = 32s

smoothSolver:  Solving for Ux, Initial residual = 0.000668115, Final residual = 5.7733e-05, No Iterations 5
smoothSolver:  Solving for Uy, Initial residual = 0.00106576, Final residual = 7.89345e-05, No Iterations 3
GAMG:  Solving for p, Initial residual = 0.00820764, Final residual = 0.00068854, No Iterations 10
time step continuity errors : sum local = 2.85804e-05, global = -1.02758e-05, cumulative = 0.000625191
smoothSolver:  Solving for ReThetat, Initial residual = 0.00603814, Final residual = 0.000138724, No Iterations 1
smoothSolver:  Solving for gammaInt, Initial residual = 0.00248, Final residual = 3.90309e-05, No Iterations 1
smoothSolver:  Solving for omega, Initial residual = 3.32081e-06, Final residual = 2.56542e-07, No Iterations 2
smoothSolver:  Solving for k, Initial residual = 0.0011479, Final residual = 6.40868e-05, No Iterations 3
ExecutionTime = 1.59097 s  ClockTime = 1 s

Time = 33s

smoothSolver:  Solving for Ux, Initial residual = 0.000637234, Final residual = 5.50695e-05, No Iterations 5
smoothSolver:  Solving for Uy, Initial residual = 0.000994389, Final residual = 7.3324e-05, No Iterations 3
GAMG:  Solving for p, Initial residual = 0.0058261, Final residual = 0.000516834, No Iterations 10
time step continuity errors : sum local = 2.86557e-05, global = -9.91103e-06, cumulative = 0.00061528
smoothSolver:  Solving for ReThetat, Initial residual = 0.00539651, Final residual = 0.000130146, No Iterations 1
smoothSolver:  Solving for gammaInt, Initial residual = 0.00281081, Final residual = 5.16479e-05, No Iterations 1
smoothSolver:  Solving for omega, Initial residual = 2.9224e-06, Final residual = 2.34016e-07, No Iterations 2
smoothSolver:  Solving for k, Initial residual = 0.00109833, Final residual = 6.59531e-05, No Iterations 3
ExecutionTime = 1.63478 s  ClockTime = 1 s

Time = 34s

smoothSolver:  Solving for Ux, Initial residual = 0.000611512, Final residual = 5.26102e-05, No Iterations 5
smoothSolver:  Solving for Uy, Initial residual = 0.000929529, Final residual = 6.90767e-05, No Iterations 3
GAMG:  Solving for p, Initial residual = 0.0045409, Final residual = 0.000393707, No Iterations 10
time step continuity errors : sum local = 2.70337e-05, global = -9.29326e-06, cumulative = 0.000605987
smoothSolver:  Solving for ReThetat, Initial residual = 0.00489262, Final residual = 0.000124182, No Iterations 1
smoothSolver:  Solving for gammaInt, Initial residual = 0.00321184, Final residual = 7.05286e-05, No Iterations 1
smoothSolver:  Solving for omega, Initial residual = 2.59197e-06, Final residual = 2.15036e-07, No Iterations 2
smoothSolver:  Solving for k, Initial residual = 0.00106475, Final residual = 6.87506e-05, No Iterations 3
ExecutionTime = 1.67912 s  ClockTime = 1 s

Time = 35s

smoothSolver:  Solving for Ux, Initial residual = 0.000584404, Final residual = 5.03324e-05, No Iterations 5
smoothSolver:  Solving for Uy, Initial residual = 0.000869041, Final residual = 6.58595e-05, No Iterations 3
GAMG:  Solving for p, Initial residual = 0.00363442, Final residual = 0.000316929, No Iterations 10
time step continuity errors : sum local = 2.56776e-05, global = -8.20172e-06, cumulative = 0.000597785
smoothSolver:  Solving for ReThetat, Initial residual = 0.00448564, Final residual = 0.000119335, No Iterations 1
smoothSolver:  Solving for gammaInt, Initial residual = 0.00356965, Final residual = 9.61854e-05, No Iterations 1
smoothSolver:  Solving for omega, Initial residual = 2.30891e-06, Final residual = 1.98848e-07, No Iterations 2
smoothSolver:  Solving for k, Initial residual = 0.00104213, Final residual = 7.26378e-05, No Iterations 3
ExecutionTime = 1.72502 s  ClockTime = 1 s

Time = 36s

smoothSolver:  Solving for Ux, Initial residual = 0.00056159, Final residual = 4.823e-05, No Iterations 5
smoothSolver:  Solving for Uy, Initial residual = 0.000814534, Final residual = 6.34405e-05, No Iterations 3
GAMG:  Solving for p, Initial residual = 0.00307446, Final residual = 0.000261392, No Iterations 10
time step continuity errors : sum local = 2.41837e-05, global = -7.15286e-06, cumulative = 0.000590632
smoothSolver:  Solving for ReThetat, Initial residual = 0.00414466, Final residual = 0.000115295, No Iterations 1
smoothSolver:  Solving for gammaInt, Initial residual = 0.00456697, Final residual = 0.000151066, No Iterations 1
smoothSolver:  Solving for omega, Initial residual = 2.07331e-06, Final residual = 1.85064e-07, No Iterations 2
smoothSolver:  Solving for k, Initial residual = 0.00103124, Final residual = 7.80807e-05, No Iterations 3
ExecutionTime = 1.77031 s  ClockTime = 2 s

Time = 37s

smoothSolver:  Solving for Ux, Initial residual = 0.000537849, Final residual = 4.62424e-05, No Iterations 5
smoothSolver:  Solving for Uy, Initial residual = 0.000766587, Final residual = 6.15572e-05, No Iterations 3
GAMG:  Solving for p, Initial residual = 0.00261146, Final residual = 0.000220299, No Iterations 10
time step continuity errors : sum local = 2.27003e-05, global = -5.87699e-06, cumulative = 0.000584755
smoothSolver:  Solving for ReThetat, Initial residual = 0.00382985, Final residual = 0.000112168, No Iterations 1
smoothSolver:  Solving for gammaInt, Initial residual = 0.00751009, Final residual = 0.000318075, No Iterations 1
smoothSolver:  Solving for omega, Initial residual = 1.86758e-06, Final residual = 1.73086e-07, No Iterations 2
smoothSolver:  Solving for k, Initial residual = 0.00104473, Final residual = 8.70532e-05, No Iterations 3
ExecutionTime = 1.81466 s  ClockTime = 2 s

Time = 38s

smoothSolver:  Solving for Ux, Initial residual = 0.000517462, Final residual = 4.44103e-05, No Iterations 5
smoothSolver:  Solving for Uy, Initial residual = 0.000725259, Final residual = 6.00277e-05, No Iterations 3
GAMG:  Solving for p, Initial residual = 0.00230295, Final residual = 0.000183099, No Iterations 10
time step continuity errors : sum local = 2.06116e-05, global = -4.67666e-06, cumulative = 0.000580079
smoothSolver:  Solving for ReThetat, Initial residual = 0.0035179, Final residual = 0.000109435, No Iterations 1
smoothSolver:  Solving for gammaInt, Initial residual = 0.00822551, Final residual = 0.000230516, No Iterations 1
smoothSolver:  Solving for omega, Initial residual = 1.68752e-06, Final residual = 1.62739e-07, No Iterations 2
smoothSolver:  Solving for k, Initial residual = 0.00105277, Final residual = 9.4889e-05, No Iterations 3
ExecutionTime = 1.85872 s  ClockTime = 2 s

Time = 39s

smoothSolver:  Solving for Ux, Initial residual = 0.000496587, Final residual = 4.26562e-05, No Iterations 5
smoothSolver:  Solving for Uy, Initial residual = 0.000691206, Final residual = 5.8658e-05, No Iterations 3
GAMG:  Solving for p, Initial residual = 0.00201528, Final residual = 0.000161722, No Iterations 10
time step continuity errors : sum local = 1.95689e-05, global = -3.90164e-06, cumulative = 0.000576177
smoothSolver:  Solving for ReThetat, Initial residual = 0.00319894, Final residual = 0.000107192, No Iterations 1
smoothSolver:  Solving for gammaInt, Initial residual = 0.00648378, Final residual = 0.000157633, No Iterations 1
smoothSolver:  Solving for omega, Initial residual = 1.53028e-06, Final residual = 5.9201e-08, No Iterations 3
smoothSolver:  Solving for k, Initial residual = 0.00104625, Final residual = 0.000100346, No Iterations 3
ExecutionTime = 1.90298 s  ClockTime = 2 s

Time = 40s

smoothSolver:  Solving for Ux, Initial residual = 0.000478225, Final residual = 4.10522e-05, No Iterations 5
smoothSolver:  Solving for Uy, Initial residual = 0.000661071, Final residual = 5.72995e-05, No Iterations 3
GAMG:  Solving for p, Initial residual = 0.00181333, Final residual = 0.000179526, No Iterations 8
time step continuity errors : sum local = 2.30619e-05, global = -4.90538e-06, cumulative = 0.000571272
smoothSolver:  Solving for ReThetat, Initial residual = 0.00285354, Final residual = 0.00010522, No Iterations 1
smoothSolver:  Solving for gammaInt, Initial residual = 0.00515897, Final residual = 0.000106342, No Iterations 1
smoothSolver:  Solving for omega, Initial residual = 1.29556e-06, Final residual = 5.19828e-08, No Iterations 3
smoothSolver:  Solving for k, Initial residual = 0.0010341, Final residual = 5.66846e-05, No Iterations 4
ExecutionTime = 1.94457 s  ClockTime = 2 s

Time = 41s

smoothSolver:  Solving for Ux, Initial residual = 0.000459319, Final residual = 3.94897e-05, No Iterations 5
smoothSolver:  Solving for Uy, Initial residual = 0.000633835, Final residual = 5.57629e-05, No Iterations 3
GAMG:  Solving for p, Initial residual = 0.00165185, Final residual = 0.000136431, No Iterations 10
time step continuity errors : sum local = 1.83231e-05, global = -3.3834e-06, cumulative = 0.000567888
smoothSolver:  Solving for ReThetat, Initial residual = 0.00250253, Final residual = 0.000104347, No Iterations 1
smoothSolver:  Solving for gammaInt, Initial residual = 0.00433038, Final residual = 7.94331e-05, No Iterations 1
smoothSolver:  Solving for omega, Initial residual = 1.19144e-06, Final residual = 5.03349e-08, No Iterations 3
smoothSolver:  Solving for k, Initial residual = 0.00101955, Final residual = 5.89199e-05, No Iterations 4
ExecutionTime = 1.99048 s  ClockTime = 2 s

Time = 42s

smoothSolver:  Solving for Ux, Initial residual = 0.00044299, Final residual = 3.80777e-05, No Iterations 5
smoothSolver:  Solving for Uy, Initial residual = 0.000615152, Final residual = 5.41376e-05, No Iterations 3
GAMG:  Solving for p, Initial residual = 0.0015183, Final residual = 0.00015064, No Iterations 8
time step continuity errors : sum local = 2.11396e-05, global = -4.31057e-06, cumulative = 0.000563578
smoothSolver:  Solving for ReThetat, Initial residual = 0.00215598, Final residual = 0.000103733, No Iterations 1
smoothSolver:  Solving for gammaInt, Initial residual = 0.00405174, Final residual = 8.82711e-05, No Iterations 1
smoothSolver:  Solving for omega, Initial residual = 1.08936e-06, Final residual = 4.90415e-08, No Iterations 3
smoothSolver:  Solving for k, Initial residual = 0.00100634, Final residual = 6.10582e-05, No Iterations 4
ExecutionTime = 2.03426 s  ClockTime = 2 s

Time = 43s

smoothSolver:  Solving for Ux, Initial residual = 0.000426179, Final residual = 3.67025e-05, No Iterations 5
smoothSolver:  Solving for Uy, Initial residual = 0.000595813, Final residual = 5.21841e-05, No Iterations 3
GAMG:  Solving for p, Initial residual = 0.00140982, Final residual = 0.000120331, No Iterations 10
time step continuity errors : sum local = 1.73722e-05, global = -3.19113e-06, cumulative = 0.000560386
smoothSolver:  Solving for ReThetat, Initial residual = 0.00185146, Final residual = 0.000103512, No Iterations 1
smoothSolver:  Solving for gammaInt, Initial residual = 0.00466967, Final residual = 0.000129852, No Iterations 1
smoothSolver:  Solving for omega, Initial residual = 1.00953e-06, Final residual = 4.82148e-08, No Iterations 3
smoothSolver:  Solving for k, Initial residual = 0.00100055, Final residual = 6.35492e-05, No Iterations 4
ExecutionTime = 2.07956 s  ClockTime = 2 s

Time = 44s

smoothSolver:  Solving for Ux, Initial residual = 0.000411511, Final residual = 3.54667e-05, No Iterations 5
smoothSolver:  Solving for Uy, Initial residual = 0.00058312, Final residual = 5.00757e-05, No Iterations 3
GAMG:  Solving for p, Initial residual = 0.00131537, Final residual = 0.000106266, No Iterations 10
time step continuity errors : sum local = 1.57712e-05, global = -2.86692e-06, cumulative = 0.00055752
smoothSolver:  Solving for ReThetat, Initial residual = 0.00161638, Final residual = 0.000103821, No Iterations 1
smoothSolver:  Solving for gammaInt, Initial residual = 0.00634735, Final residual = 0.000217629, No Iterations 1
smoothSolver:  Solving for omega, Initial residual = 9.38819e-07, Final residual = 4.76086e-08, No Iterations 3
smoothSolver:  Solving for k, Initial residual = 0.0010071, Final residual = 6.67372e-05, No Iterations 4
ExecutionTime = 2.12437 s  ClockTime = 2 s

Time = 45s

smoothSolver:  Solving for Ux, Initial residual = 0.000397219, Final residual = 3.42589e-05, No Iterations 5
smoothSolver:  Solving for Uy, Initial residual = 0.000570917, Final residual = 4.76942e-05, No Iterations 3
GAMG:  Solving for p, Initial residual = 0.00124382, Final residual = 0.000107741, No Iterations 10
time step continuity errors : sum local = 1.6293e-05, global = -3.02007e-06, cumulative = 0.000554499
smoothSolver:  Solving for ReThetat, Initial residual = 0.00146652, Final residual = 0.000104396, No Iterations 1
smoothSolver:  Solving for gammaInt, Initial residual = 0.00969787, Final residual = 0.000368205, No Iterations 1
smoothSolver:  Solving for omega, Initial residual = 8.76454e-07, Final residual = 4.71256e-08, No Iterations 3
smoothSolver:  Solving for k, Initial residual = 0.00103567, Final residual = 7.14403e-05, No Iterations 4
ExecutionTime = 2.17046 s  ClockTime = 2 s

Time = 46s

smoothSolver:  Solving for Ux, Initial residual = 0.000383736, Final residual = 3.31746e-05, No Iterations 5
smoothSolver:  Solving for Uy, Initial residual = 0.00055789, Final residual = 4.51223e-05, No Iterations 3
GAMG:  Solving for p, Initial residual = 0.00118812, Final residual = 0.000109397, No Iterations 10
time step continuity errors : sum local = 1.67874e-05, global = -3.05357e-06, cumulative = 0.000551446
smoothSolver:  Solving for ReThetat, Initial residual = 0.00141757, Final residual = 0.000105047, No Iterations 1
smoothSolver:  Solving for gammaInt, Initial residual = 0.0072553, Final residual = 0.000151611, No Iterations 1
smoothSolver:  Solving for omega, Initial residual = 8.17194e-07, Final residual = 4.67893e-08, No Iterations 3
smoothSolver:  Solving for k, Initial residual = 0.00103802, Final residual = 7.40037e-05, No Iterations 4
ExecutionTime = 2.21724 s  ClockTime = 2 s

Time = 47s

smoothSolver:  Solving for Ux, Initial residual = 0.000371666, Final residual = 3.21279e-05, No Iterations 5
smoothSolver:  Solving for Uy, Initial residual = 0.000547545, Final residual = 4.24646e-05, No Iterations 3
GAMG:  Solving for p, Initial residual = 0.00115077, Final residual = 0.00010973, No Iterations 10
time step continuity errors : sum local = 1.7033e-05, global = -3.15537e-06, cumulative = 0.000548291
smoothSolver:  Solving for ReThetat, Initial residual = 0.00147059, Final residual = 0.000105562, No Iterations 1
smoothSolver:  Solving for gammaInt, Initial residual = 0.00441218, Final residual = 8.64488e-05, No Iterations 1
smoothSolver:  Solving for omega, Initial residual = 7.6882e-07, Final residual = 4.68085e-08, No Iterations 3
smoothSolver:  Solving for k, Initial residual = 0.00103139, Final residual = 7.57777e-05, No Iterations 4
ExecutionTime = 2.26297 s  ClockTime = 2 s

Time = 48s

smoothSolver:  Solving for Ux, Initial residual = 0.000360171, Final residual = 3.11892e-05, No Iterations 5
smoothSolver:  Solving for Uy, Initial residual = 0.000537485, Final residual = 3.97977e-05, No Iterations 3
GAMG:  Solving for p, Initial residual = 0.00111149, Final residual = 0.000107774, No Iterations 10
time step continuity errors : sum local = 1.68899e-05, global = -3.09481e-06, cumulative = 0.000545196
smoothSolver:  Solving for ReThetat, Initial residual = 0.00163943, Final residual = 0.000105787, No Iterations 1
smoothSolver:  Solving for gammaInt, Initial residual = 0.00548845, Final residual = 0.000182796, No Iterations 1
smoothSolver:  Solving for omega, Initial residual = 7.29111e-07, Final residual = 4.69723e-08, No Iterations 3
smoothSolver:  Solving for k, Initial residual = 0.00103893, Final residual = 7.8459e-05, No Iterations 4
ExecutionTime = 2.30867 s  ClockTime = 2 s

Time = 49s

smoothSolver:  Solving for Ux, Initial residual = 0.000350588, Final residual = 3.03028e-05, No Iterations 5
smoothSolver:  Solving for Uy, Initial residual = 0.000527573, Final residual = 3.72158e-05, No Iterations 3
GAMG:  Solving for p, Initial residual = 0.00107798, Final residual = 0.0001046, No Iterations 10
time step continuity errors : sum local = 1.65141e-05, global = -3.00814e-06, cumulative = 0.000542188
smoothSolver:  Solving for ReThetat, Initial residual = 0.00184284, Final residual = 0.000105851, No Iterations 1
smoothSolver:  Solving for gammaInt, Initial residual = 0.00450705, Final residual = 0.000107561, No Iterations 1
smoothSolver:  Solving for omega, Initial residual = 7.00415e-07, Final residual = 4.71613e-08, No Iterations 3
smoothSolver:  Solving for k, Initial residual = 0.00103618, Final residual = 8.03353e-05, No Iterations 4
ExecutionTime = 2.35315 s  ClockTime = 2 s

Time = 50s

smoothSolver:  Solving for Ux, Initial residual = 0.000343112, Final residual = 2.95464e-05, No Iterations 5
smoothSolver:  Solving for Uy, Initial residual = 0.000516796, Final residual = 3.47537e-05, No Iterations 3
GAMG:  Solving for p, Initial residual = 0.00103936, Final residual = 0.00010097, No Iterations 10
time step continuity errors : sum local = 1.60436e-05, global = -2.7442e-06, cumulative = 0.000539443
smoothSolver:  Solving for ReThetat, Initial residual = 0.00197431, Final residual = 0.000105609, No Iterations 1
smoothSolver:  Solving for gammaInt, Initial residual = 0.00429558, Final residual = 0.000123503, No Iterations 1
smoothSolver:  Solving for omega, Initial residual = 6.92395e-07, Final residual = 4.73815e-08, No Iterations 3
smoothSolver:  Solving for k, Initial residual = 0.00103328, Final residual = 8.2164e-05, No Iterations 4
ExecutionTime = 2.39968 s  ClockTime = 2 s

Time = 51s

smoothSolver:  Solving for Ux, Initial residual = 0.000338915, Final residual = 2.89572e-05, No Iterations 5
smoothSolver:  Solving for Uy, Initial residual = 0.000505177, Final residual = 3.24852e-05, No Iterations 3
GAMG:  Solving for p, Initial residual = 0.00101477, Final residual = 9.63281e-05, No Iterations 10
time step continuity errors : sum local = 1.5389e-05, global = -2.52006e-06, cumulative = 0.000536923
smoothSolver:  Solving for ReThetat, Initial residual = 0.00202898, Final residual = 0.000105, No Iterations 1
smoothSolver:  Solving for gammaInt, Initial residual = 0.00586781, Final residual = 0.000220368, No Iterations 1
smoothSolver:  Solving for omega, Initial residual = 7.01341e-07, Final residual = 4.75267e-08, No Iterations 3
smoothSolver:  Solving for k, Initial residual = 0.00104298, Final residual = 8.49671e-05, No Iterations 4
ExecutionTime = 2.44441 s  ClockTime = 2 s

Time = 52s

smoothSolver:  Solving for Ux, Initial residual = 0.0003362, Final residual = 2.8641e-05, No Iterations 5
smoothSolver:  Solving for Uy, Initial residual = 0.000493024, Final residual = 3.04078e-05, No Iterations 3
GAMG:  Solving for p, Initial residual = 0.000976284, Final residual = 9.24584e-05, No Iterations 10
time step continuity errors : sum local = 1.48519e-05, global = -2.32389e-06, cumulative = 0.000534599
smoothSolver:  Solving for ReThetat, Initial residual = 0.00200668, Final residual = 0.00010395, No Iterations 1
smoothSolver:  Solving for gammaInt, Initial residual = 0.00764806, Final residual = 0.000305826, No Iterations 1
smoothSolver:  Solving for omega, Initial residual = 7.17446e-07, Final residual = 4.7681e-08, No Iterations 3
smoothSolver:  Solving for k, Initial residual = 0.00106337, Final residual = 8.8635e-05, No Iterations 4
ExecutionTime = 2.48914 s  ClockTime = 2 s

Time = 53s

smoothSolver:  Solving for Ux, Initial residual = 0.000335685, Final residual = 2.8511e-05, No Iterations 5
smoothSolver:  Solving for Uy, Initial residual = 0.000480491, Final residual = 2.85564e-05, No Iterations 3
GAMG:  Solving for p, Initial residual = 0.000953775, Final residual = 8.86124e-05, No Iterations 10
time step continuity errors : sum local = 1.43138e-05, global = -2.13468e-06, cumulative = 0.000532465
smoothSolver:  Solving for ReThetat, Initial residual = 0.00192613, Final residual = 0.00010252, No Iterations 1
smoothSolver:  Solving for gammaInt, Initial residual = 0.00727069, Final residual = 0.000220841, No Iterations 1
smoothSolver:  Solving for omega, Initial residual = 7.39985e-07, Final residual = 4.81531e-08, No Iterations 3
smoothSolver:  Solving for k, Initial residual = 0.001073, Final residual = 9.14196e-05, No Iterations 4
ExecutionTime = 2.53418 s  ClockTime = 2 s

Time = 54s

smoothSolver:  Solving for Ux, Initial residual = 0.000335579, Final residual = 2.85114e-05, No Iterations 5
smoothSolver:  Solving for Uy, Initial residual = 0.000468027, Final residual = 2.69157e-05, No Iterations 3
GAMG:  Solving for p, Initial residual = 0.000913797, Final residual = 8.56235e-05, No Iterations 10
time step continuity errors : sum local = 1.3921e-05, global = -1.95634e-06, cumulative = 0.000530508
smoothSolver:  Solving for ReThetat, Initial residual = 0.00179875, Final residual = 0.000101021, No Iterations 1
smoothSolver:  Solving for gammaInt, Initial residual = 0.00445894, Final residual = 0.000103632, No Iterations 1
smoothSolver:  Solving for omega, Initial residual = 7.65572e-07, Final residual = 4.89094e-08, No Iterations 3
smoothSolver:  Solving for k, Initial residual = 0.00106817, Final residual = 9.30958e-05, No Iterations 4
ExecutionTime = 2.57969 s  ClockTime = 2 s

Time = 55s

smoothSolver:  Solving for Ux, Initial residual = 0.000335704, Final residual = 2.85386e-05, No Iterations 5
smoothSolver:  Solving for Uy, Initial residual = 0.000455421, Final residual = 2.55149e-05, No Iterations 3
GAMG:  Solving for p, Initial residual = 0.000888485, Final residual = 8.19655e-05, No Iterations 10
time step continuity errors : sum local = 1.34248e-05, global = -1.8549e-06, cumulative = 0.000528654
smoothSolver:  Solving for ReThetat, Initial residual = 0.00163844, Final residual = 9.94095e-05, No Iterations 1
smoothSolver:  Solving for gammaInt, Initial residual = 0.00327936, Final residual = 7.6086e-05, No Iterations 1
smoothSolver:  Solving for omega, Initial residual = 7.86961e-07, Final residual = 4.97293e-08, No Iterations 3
smoothSolver:  Solving for k, Initial residual = 0.00105922, Final residual = 9.43101e-05, No Iterations 4
ExecutionTime = 2.62443 s  ClockTime = 2 s

Time = 56s

smoothSolver:  Solving for Ux, Initial residual = 0.000334974, Final residual = 2.85782e-05, No Iterations 5
smoothSolver:  Solving for Uy, Initial residual = 0.000443406, Final residual = 2.43581e-05, No Iterations 3
GAMG:  Solving for p, Initial residual = 0.000859898, Final residual = 7.91639e-05, No Iterations 10
time step continuity errors : sum local = 1.308e-05, global = -1.70497e-06, cumulative = 0.000526949
smoothSolver:  Solving for ReThetat, Initial residual = 0.0014594, Final residual = 9.77432e-05, No Iterations 1
smoothSolver:  Solving for gammaInt, Initial residual = 0.00415155, Final residual = 0.00016685, No Iterations 1
smoothSolver:  Solving for omega, Initial residual = 8.00842e-07, Final residual = 5.04148e-08, No Iterations 3
smoothSolver:  Solving for k, Initial residual = 0.00106224, Final residual = 9.63347e-05, No Iterations 4
ExecutionTime = 2.66956 s  ClockTime = 2 s

Time = 57s

smoothSolver:  Solving for Ux, Initial residual = 0.000334708, Final residual = 2.86467e-05, No Iterations 5
smoothSolver:  Solving for Uy, Initial residual = 0.0004315, Final residual = 2.33994e-05, No Iterations 3
GAMG:  Solving for p, Initial residual = 0.000840261, Final residual = 7.62213e-05, No Iterations 10
time step continuity errors : sum local = 1.2721e-05, global = -1.58601e-06, cumulative = 0.000525363
smoothSolver:  Solving for ReThetat, Initial residual = 0.00127227, Final residual = 9.60692e-05, No Iterations 1
smoothSolver:  Solving for gammaInt, Initial residual = 0.00413651, Final residual = 0.000131675, No Iterations 1
smoothSolver:  Solving for omega, Initial residual = 8.12883e-07, Final residual = 5.10609e-08, No Iterations 3
smoothSolver:  Solving for k, Initial residual = 0.00106075, Final residual = 9.78543e-05, No Iterations 4
ExecutionTime = 2.7153 s  ClockTime = 2 s

Time = 58s

smoothSolver:  Solving for Ux, Initial residual = 0.000334158, Final residual = 2.87022e-05, No Iterations 5
smoothSolver:  Solving for Uy, Initial residual = 0.000420212, Final residual = 2.25595e-05, No Iterations 3
GAMG:  Solving for p, Initial residual = 0.00081711, Final residual = 7.35499e-05, No Iterations 10
time step continuity errors : sum local = 1.24197e-05, global = -1.49561e-06, cumulative = 0.000523867
smoothSolver:  Solving for ReThetat, Initial residual = 0.00109166, Final residual = 9.44822e-05, No Iterations 1
smoothSolver:  Solving for gammaInt, Initial residual = 0.00408833, Final residual = 0.0001629, No Iterations 1
smoothSolver:  Solving for omega, Initial residual = 8.22799e-07, Final residual = 5.16928e-08, No Iterations 3
smoothSolver:  Solving for k, Initial residual = 0.00106249, Final residual = 9.95451e-05, No Iterations 4
ExecutionTime = 2.75936 s  ClockTime = 3 s

Time = 59s

smoothSolver:  Solving for Ux, Initial residual = 0.000334025, Final residual = 2.87573e-05, No Iterations 5
smoothSolver:  Solving for Uy, Initial residual = 0.000409187, Final residual = 4.08908e-05, No Iterations 2
GAMG:  Solving for p, Initial residual = 0.000830435, Final residual = 7.0224e-05, No Iterations 10
time step continuity errors : sum local = 1.20155e-05, global = -1.3943e-06, cumulative = 0.000522473
smoothSolver:  Solving for ReThetat, Initial residual = 0.000922507, Final residual = 5.05333e-05, No Iterations 2
smoothSolver:  Solving for gammaInt, Initial residual = 0.00590525, Final residual = 0.000267817, No Iterations 1
smoothSolver:  Solving for omega, Initial residual = 8.32399e-07, Final residual = 5.23282e-08, No Iterations 3
smoothSolver:  Solving for k, Initial residual = 0.00107555, Final residual = 0.000102046, No Iterations 4
ExecutionTime = 2.80364 s  ClockTime = 3 s

Time = 60s

smoothSolver:  Solving for Ux, Initial residual = 0.000334239, Final residual = 2.88711e-05, No Iterations 5
smoothSolver:  Solving for Uy, Initial residual = 0.00040292, Final residual = 2.17434e-05, No Iterations 3
GAMG:  Solving for p, Initial residual = 0.000875986, Final residual = 7.01449e-05, No Iterations 10
time step continuity errors : sum local = 1.21918e-05, global = -1.43851e-06, cumulative = 0.000521034
smoothSolver:  Solving for ReThetat, Initial residual = 0.000759855, Final residual = 4.911e-05, No Iterations 2
smoothSolver:  Solving for gammaInt, Initial residual = 0.00737668, Final residual = 0.000327267, No Iterations 1
smoothSolver:  Solving for omega, Initial residual = 8.45541e-07, Final residual = 5.3091e-08, No Iterations 3
smoothSolver:  Solving for k, Initial residual = 0.00109428, Final residual = 0.000105002, No Iterations 4
ExecutionTime = 2.84915 s  ClockTime = 3 s

Time = 61s

smoothSolver:  Solving for Ux, Initial residual = 0.00033592, Final residual = 2.90649e-05, No Iterations 5
smoothSolver:  Solving for Uy, Initial residual = 0.000389996, Final residual = 3.86783e-05, No Iterations 2
GAMG:  Solving for p, Initial residual = 0.000792347, Final residual = 6.77129e-05, No Iterations 10
time step continuity errors : sum local = 1.19519e-05, global = -1.34965e-06, cumulative = 0.000519684
smoothSolver:  Solving for ReThetat, Initial residual = 0.000623052, Final residual = 4.78906e-05, No Iterations 2
smoothSolver:  Solving for gammaInt, Initial residual = 0.00551311, Final residual = 0.000176766, No Iterations 1
smoothSolver:  Solving for omega, Initial residual = 8.6297e-07, Final residual = 5.40248e-08, No Iterations 3
smoothSolver:  Solving for k, Initial residual = 0.00109626, Final residual = 0.000106503, No Iterations 4
ExecutionTime = 2.89504 s  ClockTime = 3 s

Time = 62s

smoothSolver:  Solving for Ux, Initial residual = 0.000336723, Final residual = 2.92212e-05, No Iterations 5
smoothSolver:  Solving for Uy, Initial residual = 0.000384001, Final residual = 3.82976e-05, No Iterations 2
GAMG:  Solving for p, Initial residual = 0.000725382, Final residual = 6.65246e-05, No Iterations 10
time step continuity errors : sum local = 1.19539e-05, global = -1.35065e-06, cumulative = 0.000518334
smoothSolver:  Solving for ReThetat, Initial residual = 0.000508971, Final residual = 4.68014e-05, No Iterations 2
smoothSolver:  Solving for gammaInt, Initial residual = 0.0034845, Final residual = 0.000103647, No Iterations 1
smoothSolver:  Solving for omega, Initial residual = 8.76754e-07, Final residual = 5.49063e-08, No Iterations 3
smoothSolver:  Solving for k, Initial residual = 0.0010893, Final residual = 0.000107173, No Iterations 4
ExecutionTime = 2.93944 s  ClockTime = 3 s

Time = 63s

smoothSolver:  Solving for Ux, Initial residual = 0.000337017, Final residual = 2.93206e-05, No Iterations 5
smoothSolver:  Solving for Uy, Initial residual = 0.000376001, Final residual = 3.7544e-05, No Iterations 2
GAMG:  Solving for p, Initial residual = 0.000710461, Final residual = 6.5385e-05, No Iterations 10
time step continuity errors : sum local = 1.19654e-05, global = -1.34467e-06, cumulative = 0.000516989
smoothSolver:  Solving for ReThetat, Initial residual = 0.000415786, Final residual = 2.82756e-05, No Iterations 3
smoothSolver:  Solving for gammaInt, Initial residual = 0.00259099, Final residual = 8.13362e-05, No Iterations 1
smoothSolver:  Solving for omega, Initial residual = 8.83655e-07, Final residual = 5.55931e-08, No Iterations 3
smoothSolver:  Solving for k, Initial residual = 0.00107838, Final residual = 0.000107345, No Iterations 4
ExecutionTime = 2.98439 s  ClockTime = 3 s

Time = 64s

smoothSolver:  Solving for Ux, Initial residual = 0.000336237, Final residual = 2.93533e-05, No Iterations 5
smoothSolver:  Solving for Uy, Initial residual = 0.000368154, Final residual = 3.66494e-05, No Iterations 2
GAMG:  Solving for p, Initial residual = 0.00068983, Final residual = 6.41936e-05, No Iterations 10
time step continuity errors : sum local = 1.19738e-05, global = -1.34112e-06, cumulative = 0.000515648
smoothSolver:  Solving for ReThetat, Initial residual = 0.000339516, Final residual = 2.74435e-05, No Iterations 3
smoothSolver:  Solving for gammaInt, Initial residual = 0.00232263, Final residual = 9.19587e-05, No Iterations 1
smoothSolver:  Solving for omega, Initial residual = 8.83416e-07, Final residual = 5.60363e-08, No Iterations 3
smoothSolver:  Solving for k, Initial residual = 0.00106771, Final residual = 6.10339e-05, No Iterations 5
ExecutionTime = 3.02972 s  ClockTime = 3 s

Time = 65s

smoothSolver:  Solving for Ux, Initial residual = 0.000335769, Final residual = 2.94009e-05, No Iterations 5
smoothSolver:  Solving for Uy, Initial residual = 0.000360315, Final residual = 3.56592e-05, No Iterations 2
GAMG:  Solving for p, Initial residual = 0.000678256, Final residual = 6.32713e-05, No Iterations 10
time step continuity errors : sum local = 1.20353e-05, global = -1.33041e-06, cumulative = 0.000514318
smoothSolver:  Solving for ReThetat, Initial residual = 0.000280751, Final residual = 2.67235e-05, No Iterations 3
smoothSolver:  Solving for gammaInt, Initial residual = 0.00365186, Final residual = 0.000175185, No Iterations 1
smoothSolver:  Solving for omega, Initial residual = 8.84752e-07, Final residual = 5.63691e-08, No Iterations 3
smoothSolver:  Solving for k, Initial residual = 0.00106438, Final residual = 6.14252e-05, No Iterations 5
ExecutionTime = 3.07864 s  ClockTime = 3 s

Time = 66s

smoothSolver:  Solving for Ux, Initial residual = 0.000335257, Final residual = 2.94331e-05, No Iterations 5
smoothSolver:  Solving for Uy, Initial residual = 0.000353385, Final residual = 3.4634e-05, No Iterations 2
GAMG:  Solving for p, Initial residual = 0.000659635, Final residual = 6.20145e-05, No Iterations 10
time step continuity errors : sum local = 1.20389e-05, global = -1.32628e-06, cumulative = 0.000512991
smoothSolver:  Solving for ReThetat, Initial residual = 0.000236551, Final residual = 1.65553e-05, No Iterations 4
smoothSolver:  Solving for gammaInt, Initial residual = 0.00311729, Final residual = 0.000145086, No Iterations 1
smoothSolver:  Solving for omega, Initial residual = 8.83468e-07, Final residual = 5.67004e-08, No Iterations 3
smoothSolver:  Solving for k, Initial residual = 0.00105629, Final residual = 6.15969e-05, No Iterations 5
ExecutionTime = 3.12632 s  ClockTime = 3 s

Time = 67s

smoothSolver:  Solving for Ux, Initial residual = 0.000334323, Final residual = 2.94383e-05, No Iterations 5
smoothSolver:  Solving for Uy, Initial residual = 0.000346738, Final residual = 3.35247e-05, No Iterations 2
GAMG:  Solving for p, Initial residual = 0.000644968, Final residual = 6.04135e-05, No Iterations 10
time step continuity errors : sum local = 1.19727e-05, global = -1.31129e-06, cumulative = 0.00051168
smoothSolver:  Solving for ReThetat, Initial residual = 0.000204387, Final residual = 1.60725e-05, No Iterations 4
smoothSolver:  Solving for gammaInt, Initial residual = 0.00440579, Final residual = 0.000241438, No Iterations 1
smoothSolver:  Solving for omega, Initial residual = 8.79725e-07, Final residual = 5.69397e-08, No Iterations 3
smoothSolver:  Solving for k, Initial residual = 0.00105527, Final residual = 6.20363e-05, No Iterations 5
ExecutionTime = 3.17427 s  ClockTime = 3 s

Time = 68s

smoothSolver:  Solving for Ux, Initial residual = 0.000333572, Final residual = 2.94544e-05, No Iterations 5
smoothSolver:  Solving for Uy, Initial residual = 0.000340583, Final residual = 3.23766e-05, No Iterations 2
GAMG:  Solving for p, Initial residual = 0.000627334, Final residual = 5.88157e-05, No Iterations 10
time step continuity errors : sum local = 1.19016e-05, global = -1.30877e-06, cumulative = 0.000510371
smoothSolver:  Solving for ReThetat, Initial residual = 0.000184025, Final residual = 1.56275e-05, No Iterations 4
smoothSolver:  Solving for gammaInt, Initial residual = 0.00518847, Final residual = 0.000271888, No Iterations 1
smoothSolver:  Solving for omega, Initial residual = 8.76415e-07, Final residual = 5.71517e-08, No Iterations 3
smoothSolver:  Solving for k, Initial residual = 0.00105574, Final residual = 6.25617e-05, No Iterations 5
ExecutionTime = 3.22358 s  ClockTime = 3 s

Time = 69s

smoothSolver:  Solving for Ux, Initial residual = 0.000332874, Final residual = 2.94805e-05, No Iterations 5
smoothSolver:  Solving for Uy, Initial residual = 0.000334323, Final residual = 3.11847e-05, No Iterations 2
GAMG:  Solving for p, Initial residual = 0.000612557, Final residual = 5.74358e-05, No Iterations 10
time step continuity errors : sum local = 1.18665e-05, global = -1.31506e-06, cumulative = 0.000509056
smoothSolver:  Solving for ReThetat, Initial residual = 0.000175579, Final residual = 1.52191e-05, No Iterations 4
smoothSolver:  Solving for gammaInt, Initial residual = 0.00570495, Final residual = 0.000284691, No Iterations 1
smoothSolver:  Solving for omega, Initial residual = 8.74129e-07, Final residual = 5.73632e-08, No Iterations 3
smoothSolver:  Solving for k, Initial residual = 0.00105638, Final residual = 6.30877e-05, No Iterations 5
ExecutionTime = 3.27107 s  ClockTime = 3 s

Time = 70s

smoothSolver:  Solving for Ux, Initial residual = 0.000332063, Final residual = 2.95092e-05, No Iterations 5
smoothSolver:  Solving for Uy, Initial residual = 0.000328302, Final residual = 2.99781e-05, No Iterations 2
GAMG:  Solving for p, Initial residual = 0.000596375, Final residual = 5.62551e-05, No Iterations 10
time step continuity errors : sum local = 1.1866e-05, global = -1.33405e-06, cumulative = 0.000507722
smoothSolver:  Solving for ReThetat, Initial residual = 0.000179592, Final residual = 1.48386e-05, No Iterations 4
smoothSolver:  Solving for gammaInt, Initial residual = 0.00369601, Final residual = 0.000146861, No Iterations 1
smoothSolver:  Solving for omega, Initial residual = 8.72782e-07, Final residual = 5.7613e-08, No Iterations 3
smoothSolver:  Solving for k, Initial residual = 0.0010442, Final residual = 6.29508e-05, No Iterations 5
ExecutionTime = 3.31722 s  ClockTime = 3 s

Time = 71s

smoothSolver:  Solving for Ux, Initial residual = 0.000330287, Final residual = 2.94816e-05, No Iterations 5
smoothSolver:  Solving for Uy, Initial residual = 0.00032208, Final residual = 2.8775e-05, No Iterations 2
GAMG:  Solving for p, Initial residual = 0.000583347, Final residual = 5.51025e-05, No Iterations 10
time step continuity errors : sum local = 1.18635e-05, global = -1.35375e-06, cumulative = 0.000506368
smoothSolver:  Solving for ReThetat, Initial residual = 0.000184694, Final residual = 1.44837e-05, No Iterations 4
smoothSolver:  Solving for gammaInt, Initial residual = 0.00250356, Final residual = 0.000103602, No Iterations 1
smoothSolver:  Solving for omega, Initial residual = 8.67245e-07, Final residual = 5.77492e-08, No Iterations 3
smoothSolver:  Solving for k, Initial residual = 0.00102586, Final residual = 6.23896e-05, No Iterations 5
ExecutionTime = 3.36289 s  ClockTime = 3 s

Time = 72s

smoothSolver:  Solving for Ux, Initial residual = 0.000327805, Final residual = 2.93885e-05, No Iterations 5
smoothSolver:  Solving for Uy, Initial residual = 0.000315961, Final residual = 2.7599e-05, No Iterations 2
GAMG:  Solving for p, Initial residual = 0.000569759, Final residual = 5.38422e-05, No Iterations 10
time step continuity errors : sum local = 1.18297e-05, global = -1.38018e-06, cumulative = 0.000504988
smoothSolver:  Solving for ReThetat, Initial residual = 0.000187747, Final residual = 1.41527e-05, No Iterations 4
smoothSolver:  Solving for gammaInt, Initial residual = 0.00189757, Final residual = 8.47093e-05, No Iterations 1
smoothSolver:  Solving for omega, Initial residual = 8.56213e-07, Final residual = 5.76742e-08, No Iterations 3
smoothSolver:  Solving for k, Initial residual = 0.00100329, Final residual = 6.15093e-05, No Iterations 5
ExecutionTime = 3.41009 s  ClockTime = 3 s

Time = 73s

smoothSolver:  Solving for Ux, Initial residual = 0.000324679, Final residual = 2.92293e-05, No Iterations 5
smoothSolver:  Solving for Uy, Initial residual = 0.000309729, Final residual = 2.64712e-05, No Iterations 2
GAMG:  Solving for p, Initial residual = 0.000558035, Final residual = 5.27503e-05, No Iterations 10
time step continuity errors : sum local = 1.18229e-05, global = -1.41539e-06, cumulative = 0.000503573
smoothSolver:  Solving for ReThetat, Initial residual = 0.000189094, Final residual = 1.38448e-05, No Iterations 4
smoothSolver:  Solving for gammaInt, Initial residual = 0.00169871, Final residual = 9.04285e-05, No Iterations 1
smoothSolver:  Solving for omega, Initial residual = 8.39753e-07, Final residual = 5.73568e-08, No Iterations 3
smoothSolver:  Solving for k, Initial residual = 0.000979991, Final residual = 6.05342e-05, No Iterations 5
ExecutionTime = 3.45667 s  ClockTime = 3 s

Time = 74s

smoothSolver:  Solving for Ux, Initial residual = 0.00032115, Final residual = 2.90212e-05, No Iterations 5
smoothSolver:  Solving for Uy, Initial residual = 0.000303568, Final residual = 2.54164e-05, No Iterations 2
GAMG:  Solving for p, Initial residual = 0.000547465, Final residual = 5.15302e-05, No Iterations 10
time step continuity errors : sum local = 1.17776e-05, global = -1.44235e-06, cumulative = 0.00050213
smoothSolver:  Solving for ReThetat, Initial residual = 0.000189274, Final residual = 1.35606e-05, No Iterations 4
smoothSolver:  Solving for gammaInt, Initial residual = 0.00203181, Final residual = 0.000125031, No Iterations 1
smoothSolver:  Solving for omega, Initial residual = 8.2055e-07, Final residual = 5.68692e-08, No Iterations 3
smoothSolver:  Solving for k, Initial residual = 0.000958719, Final residual = 5.9615e-05, No Iterations 5
ExecutionTime = 3.50291 s  ClockTime = 3 s

Time = 75s

smoothSolver:  Solving for Ux, Initial residual = 0.000317385, Final residual = 2.87776e-05, No Iterations 5
smoothSolver:  Solving for Uy, Initial residual = 0.000297622, Final residual = 2.44246e-05, No Iterations 2
GAMG:  Solving for p, Initial residual = 0.000535318, Final residual = 5.03722e-05, No Iterations 10
time step continuity errors : sum local = 1.1735e-05, global = -1.46437e-06, cumulative = 0.000500666
smoothSolver:  Solving for ReThetat, Initial residual = 0.000188829, Final residual = 1.32911e-05, No Iterations 4
smoothSolver:  Solving for gammaInt, Initial residual = 0.00219853, Final residual = 0.000122106, No Iterations 1
smoothSolver:  Solving for omega, Initial residual = 8.00552e-07, Final residual = 5.62543e-08, No Iterations 3
smoothSolver:  Solving for k, Initial residual = 0.000936491, Final residual = 5.86186e-05, No Iterations 5
ExecutionTime = 3.55295 s  ClockTime = 3 s

Time = 76s

smoothSolver:  Solving for Ux, Initial residual = 0.000313425, Final residual = 2.85051e-05, No Iterations 5
smoothSolver:  Solving for Uy, Initial residual = 0.000291768, Final residual = 2.35274e-05, No Iterations 2
GAMG:  Solving for p, Initial residual = 0.000525278, Final residual = 4.9117e-05, No Iterations 10
time step continuity errors : sum local = 1.16581e-05, global = -1.4666e-06, cumulative = 0.0004992
smoothSolver:  Solving for ReThetat, Initial residual = 0.000187961, Final residual = 1.3034e-05, No Iterations 4
smoothSolver:  Solving for gammaInt, Initial residual = 0.00203666, Final residual = 0.000118334, No Iterations 1
smoothSolver:  Solving for omega, Initial residual = 7.79843e-07, Final residual = 5.55259e-08, No Iterations 3
smoothSolver:  Solving for k, Initial residual = 0.000913128, Final residual = 5.75229e-05, No Iterations 5
ExecutionTime = 3.60272 s  ClockTime = 3 s

Time = 77s

smoothSolver:  Solving for Ux, Initial residual = 0.000309143, Final residual = 2.82008e-05, No Iterations 5
smoothSolver:  Solving for Uy, Initial residual = 0.000286159, Final residual = 2.27081e-05, No Iterations 2
GAMG:  Solving for p, Initial residual = 0.000514023, Final residual = 4.7813e-05, No Iterations 10
time step continuity errors : sum local = 1.15564e-05, global = -1.45291e-06, cumulative = 0.000497747
smoothSolver:  Solving for ReThetat, Initial residual = 0.000186779, Final residual = 1.27883e-05, No Iterations 4
smoothSolver:  Solving for gammaInt, Initial residual = 0.00218793, Final residual = 0.000136496, No Iterations 1
smoothSolver:  Solving for omega, Initial residual = 7.57969e-07, Final residual = 5.46869e-08, No Iterations 3
smoothSolver:  Solving for k, Initial residual = 0.000890205, Final residual = 5.64038e-05, No Iterations 5
ExecutionTime = 3.65119 s  ClockTime = 3 s

Time = 78s

smoothSolver:  Solving for Ux, Initial residual = 0.000304735, Final residual = 2.78757e-05, No Iterations 5
smoothSolver:  Solving for Uy, Initial residual = 0.000280771, Final residual = 2.19828e-05, No Iterations 2
GAMG:  Solving for p, Initial residual = 0.000503734, Final residual = 4.6124e-05, No Iterations 10
time step continuity errors : sum local = 1.13465e-05, global = -1.41688e-06, cumulative = 0.00049633
smoothSolver:  Solving for ReThetat, Initial residual = 0.000185413, Final residual = 1.25529e-05, No Iterations 4
smoothSolver:  Solving for gammaInt, Initial residual = 0.00285614, Final residual = 0.000193626, No Iterations 1
smoothSolver:  Solving for omega, Initial residual = 7.35674e-07, Final residual = 5.37737e-08, No Iterations 3
smoothSolver:  Solving for k, Initial residual = 0.000870216, Final residual = 5.54129e-05, No Iterations 5
ExecutionTime = 3.70083 s  ClockTime = 3 s

Time = 79s

smoothSolver:  Solving for Ux, Initial residual = 0.000300244, Final residual = 2.75387e-05, No Iterations 5
smoothSolver:  Solving for Uy, Initial residual = 0.000275397, Final residual = 2.13542e-05, No Iterations 2
GAMG:  Solving for p, Initial residual = 0.000491768, Final residual = 4.45355e-05, No Iterations 10
time step continuity errors : sum local = 1.11442e-05, global = -1.38604e-06, cumulative = 0.000494944
smoothSolver:  Solving for ReThetat, Initial residual = 0.000183666, Final residual = 1.23285e-05, No Iterations 4
smoothSolver:  Solving for gammaInt, Initial residual = 0.00272537, Final residual = 0.000176574, No Iterations 1
smoothSolver:  Solving for omega, Initial residual = 7.14055e-07, Final residual = 5.2817e-08, No Iterations 3
smoothSolver:  Solving for k, Initial residual = 0.00084874, Final residual = 5.43135e-05, No Iterations 5
ExecutionTime = 3.7505 s  ClockTime = 4 s

Time = 80s

smoothSolver:  Solving for Ux, Initial residual = 0.000295627, Final residual = 2.71865e-05, No Iterations 5
smoothSolver:  Solving for Uy, Initial residual = 0.000270182, Final residual = 2.0794e-05, No Iterations 2
GAMG:  Solving for p, Initial residual = 0.000482977, Final residual = 4.28982e-05, No Iterations 10
time step continuity errors : sum local = 1.0913e-05, global = -1.36508e-06, cumulative = 0.000493579
smoothSolver:  Solving for ReThetat, Initial residual = 0.000181903, Final residual = 1.21132e-05, No Iterations 4
smoothSolver:  Solving for gammaInt, Initial residual = 0.00285036, Final residual = 0.000197589, No Iterations 1
smoothSolver:  Solving for omega, Initial residual = 6.92107e-07, Final residual = 5.18106e-08, No Iterations 3
smoothSolver:  Solving for k, Initial residual = 0.000827442, Final residual = 5.31918e-05, No Iterations 5
ExecutionTime = 3.79944 s  ClockTime = 4 s

Time = 81s

smoothSolver:  Solving for Ux, Initial residual = 0.000290852, Final residual = 2.68177e-05, No Iterations 5
smoothSolver:  Solving for Uy, Initial residual = 0.000265058, Final residual = 2.02948e-05, No Iterations 2
GAMG:  Solving for p, Initial residual = 0.000473088, Final residual = 4.1592e-05, No Iterations 10
time step continuity errors : sum local = 1.07501e-05, global = -1.35351e-06, cumulative = 0.000492225
smoothSolver:  Solving for ReThetat, Initial residual = 0.000179786, Final residual = 1.19051e-05, No Iterations 4
smoothSolver:  Solving for gammaInt, Initial residual = 0.00284711, Final residual = 0.000194887, No Iterations 1
smoothSolver:  Solving for omega, Initial residual = 6.70158e-07, Final residual = 5.07692e-08, No Iterations 3
smoothSolver:  Solving for k, Initial residual = 0.000805464, Final residual = 5.20001e-05, No Iterations 5
ExecutionTime = 3.849 s  ClockTime = 4 s

Time = 82s

smoothSolver:  Solving for Ux, Initial residual = 0.000285955, Final residual = 2.64358e-05, No Iterations 5
smoothSolver:  Solving for Uy, Initial residual = 0.000260011, Final residual = 1.98315e-05, No Iterations 2
GAMG:  Solving for p, Initial residual = 0.00046461, Final residual = 4.03673e-05, No Iterations 10
time step continuity errors : sum local = 1.05945e-05, global = -1.33465e-06, cumulative = 0.00049089
smoothSolver:  Solving for ReThetat, Initial residual = 0.000177629, Final residual = 1.17033e-05, No Iterations 4
smoothSolver:  Solving for gammaInt, Initial residual = 0.00201206, Final residual = 0.000116256, No Iterations 1
smoothSolver:  Solving for omega, Initial residual = 6.48082e-07, Final residual = 4.969e-08, No Iterations 3
smoothSolver:  Solving for k, Initial residual = 0.000778497, Final residual = 5.04695e-05, No Iterations 5
ExecutionTime = 3.89934 s  ClockTime = 4 s

Time = 83s

smoothSolver:  Solving for Ux, Initial residual = 0.000280654, Final residual = 2.60202e-05, No Iterations 5
smoothSolver:  Solving for Uy, Initial residual = 0.000255215, Final residual = 1.94097e-05, No Iterations 2
GAMG:  Solving for p, Initial residual = 0.000454723, Final residual = 3.91771e-05, No Iterations 10
time step continuity errors : sum local = 1.04348e-05, global = -1.31094e-06, cumulative = 0.000489579
smoothSolver:  Solving for ReThetat, Initial residual = 0.000175426, Final residual = 1.15058e-05, No Iterations 4
smoothSolver:  Solving for gammaInt, Initial residual = 0.00120816, Final residual = 6.43938e-05, No Iterations 1
smoothSolver:  Solving for omega, Initial residual = 6.24563e-07, Final residual = 4.85534e-08, No Iterations 3
smoothSolver:  Solving for k, Initial residual = 0.000748481, Final residual = 4.8732e-05, No Iterations 5
ExecutionTime = 3.95643 s  ClockTime = 4 s

Time = 84s

smoothSolver:  Solving for Ux, Initial residual = 0.000274976, Final residual = 2.55691e-05, No Iterations 5
smoothSolver:  Solving for Uy, Initial residual = 0.00025066, Final residual = 1.89979e-05, No Iterations 2
GAMG:  Solving for p, Initial residual = 0.000445893, Final residual = 3.76265e-05, No Iterations 10
time step continuity errors : sum local = 1.01649e-05, global = -1.27015e-06, cumulative = 0.000488309
smoothSolver:  Solving for ReThetat, Initial residual = 0.000173122, Final residual = 1.13107e-05, No Iterations 4
smoothSolver:  Solving for gammaInt, Initial residual = 0.000987164, Final residual = 6.46648e-05, No Iterations 1
smoothSolver:  Solving for omega, Initial residual = 5.99327e-07, Final residual = 4.73455e-08, No Iterations 3
smoothSolver:  Solving for k, Initial residual = 0.000719093, Final residual = 4.7006e-05, No Iterations 5
ExecutionTime = 4.0077 s  ClockTime = 4 s

Time = 85s

smoothSolver:  Solving for Ux, Initial residual = 0.000268972, Final residual = 2.50879e-05, No Iterations 5
smoothSolver:  Solving for Uy, Initial residual = 0.000246057, Final residual = 1.85831e-05, No Iterations 2
GAMG:  Solving for p, Initial residual = 0.000436932, Final residual = 3.59479e-05, No Iterations 10
time step continuity errors : sum local = 9.84452e-06, global = -1.21681e-06, cumulative = 0.000487093
smoothSolver:  Solving for ReThetat, Initial residual = 0.000170805, Final residual = 1.11188e-05, No Iterations 4
smoothSolver:  Solving for gammaInt, Initial residual = 0.00100414, Final residual = 6.68486e-05, No Iterations 1
smoothSolver:  Solving for omega, Initial residual = 5.73463e-07, Final residual = 4.60713e-08, No Iterations 3
smoothSolver:  Solving for k, Initial residual = 0.000690584, Final residual = 4.52996e-05, No Iterations 5
ExecutionTime = 4.05915 s  ClockTime = 4 s

Time = 86s

smoothSolver:  Solving for Ux, Initial residual = 0.000262772, Final residual = 2.45853e-05, No Iterations 5
smoothSolver:  Solving for Uy, Initial residual = 0.000241407, Final residual = 1.81611e-05, No Iterations 2
[...]
smoothSolver:  Solving for gammaInt, Initial residual = 7.72487e-06, Final residual = 3.61779e-07, No Iterations 1
smoothSolver:  Solving for omega, Initial residual = 9.84829e-09, Final residual = 9.84829e-09, No Iterations 0
smoothSolver:  Solving for k, Initial residual = 3.78492e-06, Final residual = 2.82509e-07, No Iterations 5
ExecutionTime = 12.3663 s  ClockTime = 12 s

Time = 256s

smoothSolver:  Solving for Ux, Initial residual = 1.72865e-06, Final residual = 1.30175e-07, No Iterations 6
smoothSolver:  Solving for Uy, Initial residual = 1.57893e-06, Final residual = 1.45087e-07, No Iterations 2
GAMG:  Solving for p, Initial residual = 6.0567e-06, Final residual = 8.55301e-07, No Iterations 6
time step continuity errors : sum local = 3.65025e-07, global = -6.60095e-08, cumulative = 0.0004231
smoothSolver:  Solving for ReThetat, Initial residual = 1.40572e-05, Final residual = 1.17428e-06, No Iterations 6
smoothSolver:  Solving for gammaInt, Initial residual = 7.81979e-06, Final residual = 3.77179e-07, No Iterations 1
smoothSolver:  Solving for omega, Initial residual = 1.1492e-08, Final residual = 4.81636e-09, No Iterations 1
smoothSolver:  Solving for k, Initial residual = 3.32476e-06, Final residual = 2.5697e-07, No Iterations 5
ExecutionTime = 12.4122 s  ClockTime = 12 s

Time = 257s

smoothSolver:  Solving for Ux, Initial residual = 1.67714e-06, Final residual = 1.26512e-07, No Iterations 6
smoothSolver:  Solving for Uy, Initial residual = 1.55731e-06, Final residual = 1.47822e-07, No Iterations 2
GAMG:  Solving for p, Initial residual = 5.81004e-06, Final residual = 8.17611e-07, No Iterations 6
time step continuity errors : sum local = 3.48986e-07, global = -6.29405e-08, cumulative = 0.000423037
smoothSolver:  Solving for ReThetat, Initial residual = 1.39153e-05, Final residual = 1.16657e-06, No Iterations 6
smoothSolver:  Solving for gammaInt, Initial residual = 7.59212e-06, Final residual = 4.52825e-07, No Iterations 1
smoothSolver:  Solving for omega, Initial residual = 6.88151e-09, Final residual = 6.88151e-09, No Iterations 0
smoothSolver:  Solving for k, Initial residual = 3.26735e-06, Final residual = 2.50979e-07, No Iterations 5
ExecutionTime = 12.4566 s  ClockTime = 12 s

Time = 258s

smoothSolver:  Solving for Ux, Initial residual = 1.62434e-06, Final residual = 1.22516e-07, No Iterations 6
smoothSolver:  Solving for Uy, Initial residual = 1.51591e-06, Final residual = 1.49165e-07, No Iterations 2
GAMG:  Solving for p, Initial residual = 5.80114e-06, Final residual = 7.99786e-07, No Iterations 6
time step continuity errors : sum local = 3.4142e-07, global = -6.20158e-08, cumulative = 0.000422975
smoothSolver:  Solving for ReThetat, Initial residual = 1.37701e-05, Final residual = 1.15896e-06, No Iterations 6
smoothSolver:  Solving for gammaInt, Initial residual = 8.20628e-06, Final residual = 4.88646e-07, No Iterations 1
smoothSolver:  Solving for omega, Initial residual = 7.89185e-09, Final residual = 7.89185e-09, No Iterations 0
smoothSolver:  Solving for k, Initial residual = 3.30607e-06, Final residual = 2.50447e-07, No Iterations 5
ExecutionTime = 12.5001 s  ClockTime = 12 s

Time = 259s

smoothSolver:  Solving for Ux, Initial residual = 1.57367e-06, Final residual = 1.18598e-07, No Iterations 6
smoothSolver:  Solving for Uy, Initial residual = 1.47838e-06, Final residual = 1.47208e-07, No Iterations 2
GAMG:  Solving for p, Initial residual = 5.78636e-06, Final residual = 7.86916e-07, No Iterations 6
time step continuity errors : sum local = 3.35967e-07, global = -6.11855e-08, cumulative = 0.000422913
smoothSolver:  Solving for ReThetat, Initial residual = 1.36867e-05, Final residual = 1.15136e-06, No Iterations 6
smoothSolver:  Solving for gammaInt, Initial residual = 8.80824e-06, Final residual = 5.89526e-07, No Iterations 1
smoothSolver:  Solving for omega, Initial residual = 9.2614e-09, Final residual = 9.2614e-09, No Iterations 0
smoothSolver:  Solving for k, Initial residual = 3.36909e-06, Final residual = 2.51339e-07, No Iterations 5
ExecutionTime = 12.5456 s  ClockTime = 12 s

Time = 260s

smoothSolver:  Solving for Ux, Initial residual = 1.52464e-06, Final residual = 1.14739e-07, No Iterations 6
smoothSolver:  Solving for Uy, Initial residual = 1.44423e-06, Final residual = 1.44045e-07, No Iterations 2
GAMG:  Solving for p, Initial residual = 5.75575e-06, Final residual = 7.7462e-07, No Iterations 6
time step continuity errors : sum local = 3.30757e-07, global = -6.02929e-08, cumulative = 0.000422853
smoothSolver:  Solving for ReThetat, Initial residual = 1.36127e-05, Final residual = 1.14381e-06, No Iterations 6
smoothSolver:  Solving for gammaInt, Initial residual = 1.02473e-05, Final residual = 8.80906e-07, No Iterations 1
smoothSolver:  Solving for omega, Initial residual = 1.07242e-08, Final residual = 4.65753e-09, No Iterations 1
smoothSolver:  Solving for k, Initial residual = 2.94163e-06, Final residual = 2.27753e-07, No Iterations 5
ExecutionTime = 12.5932 s  ClockTime = 12 s

Time = 261s

smoothSolver:  Solving for Ux, Initial residual = 1.4812e-06, Final residual = 1.11617e-07, No Iterations 6
smoothSolver:  Solving for Uy, Initial residual = 1.40789e-06, Final residual = 1.39054e-07, No Iterations 2
GAMG:  Solving for p, Initial residual = 5.45618e-06, Final residual = 7.44325e-07, No Iterations 6
time step continuity errors : sum local = 3.17859e-07, global = -5.76453e-08, cumulative = 0.000422796
smoothSolver:  Solving for ReThetat, Initial residual = 1.34779e-05, Final residual = 1.13623e-06, No Iterations 6
smoothSolver:  Solving for gammaInt, Initial residual = 1.30753e-05, Final residual = 4.47605e-07, No Iterations 2
smoothSolver:  Solving for omega, Initial residual = 6.47248e-09, Final residual = 6.47248e-09, No Iterations 0
smoothSolver:  Solving for k, Initial residual = 2.95202e-06, Final residual = 2.27215e-07, No Iterations 5
ExecutionTime = 12.641 s  ClockTime = 12 s

Time = 262s

smoothSolver:  Solving for Ux, Initial residual = 1.43814e-06, Final residual = 1.08251e-07, No Iterations 6
smoothSolver:  Solving for Uy, Initial residual = 1.36119e-06, Final residual = 8.43737e-08, No Iterations 3
GAMG:  Solving for p, Initial residual = 6.0832e-06, Final residual = 7.31868e-07, No Iterations 6
time step continuity errors : sum local = 3.12575e-07, global = -5.72061e-08, cumulative = 0.000422738
smoothSolver:  Solving for ReThetat, Initial residual = 1.33423e-05, Final residual = 1.12874e-06, No Iterations 6
smoothSolver:  Solving for gammaInt, Initial residual = 7.2165e-06, Final residual = 3.49964e-07, No Iterations 1
smoothSolver:  Solving for omega, Initial residual = 7.57658e-09, Final residual = 7.57658e-09, No Iterations 0
smoothSolver:  Solving for k, Initial residual = 2.97302e-06, Final residual = 2.26101e-07, No Iterations 5
ExecutionTime = 12.6887 s  ClockTime = 12 s

Time = 263s

smoothSolver:  Solving for Ux, Initial residual = 1.3951e-06, Final residual = 1.04913e-07, No Iterations 6
smoothSolver:  Solving for Uy, Initial residual = 1.29131e-06, Final residual = 1.19013e-07, No Iterations 2
GAMG:  Solving for p, Initial residual = 5.32257e-06, Final residual = 7.30553e-07, No Iterations 6
time step continuity errors : sum local = 3.12047e-07, global = -5.70496e-08, cumulative = 0.000422681
smoothSolver:  Solving for ReThetat, Initial residual = 1.32571e-05, Final residual = 1.12127e-06, No Iterations 6
smoothSolver:  Solving for gammaInt, Initial residual = 6.50807e-06, Final residual = 2.58403e-07, No Iterations 1
smoothSolver:  Solving for omega, Initial residual = 8.9816e-09, Final residual = 8.9816e-09, No Iterations 0
smoothSolver:  Solving for k, Initial residual = 3.02131e-06, Final residual = 2.25996e-07, No Iterations 5
ExecutionTime = 12.7328 s  ClockTime = 13 s

Time = 264s

smoothSolver:  Solving for Ux, Initial residual = 1.35265e-06, Final residual = 1.01568e-07, No Iterations 6
smoothSolver:  Solving for Uy, Initial residual = 1.28238e-06, Final residual = 1.23188e-07, No Iterations 2
GAMG:  Solving for p, Initial residual = 5.3614e-06, Final residual = 7.2154e-07, No Iterations 6
time step continuity errors : sum local = 3.0823e-07, global = -5.6577e-08, cumulative = 0.000422625
smoothSolver:  Solving for ReThetat, Initial residual = 1.31836e-05, Final residual = 1.11384e-06, No Iterations 6
smoothSolver:  Solving for gammaInt, Initial residual = 6.43455e-06, Final residual = 2.45818e-07, No Iterations 1
smoothSolver:  Solving for omega, Initial residual = 1.03711e-08, Final residual = 4.4337e-09, No Iterations 1
smoothSolver:  Solving for k, Initial residual = 2.63323e-06, Final residual = 2.0387e-07, No Iterations 5
ExecutionTime = 12.7765 s  ClockTime = 13 s

Time = 265s

smoothSolver:  Solving for Ux, Initial residual = 1.31592e-06, Final residual = 9.89142e-08, No Iterations 6
smoothSolver:  Solving for Uy, Initial residual = 1.26931e-06, Final residual = 1.23329e-07, No Iterations 2
GAMG:  Solving for p, Initial residual = 5.18223e-06, Final residual = 6.98911e-07, No Iterations 6
time step continuity errors : sum local = 2.98594e-07, global = -5.48248e-08, cumulative = 0.00042257
smoothSolver:  Solving for ReThetat, Initial residual = 1.30555e-05, Final residual = 1.10639e-06, No Iterations 6
smoothSolver:  Solving for gammaInt, Initial residual = 5.72671e-06, Final residual = 2.32841e-07, No Iterations 1
smoothSolver:  Solving for omega, Initial residual = 6.25046e-09, Final residual = 6.25046e-09, No Iterations 0
smoothSolver:  Solving for k, Initial residual = 2.58309e-06, Final residual = 1.99077e-07, No Iterations 5
ExecutionTime = 12.82 s  ClockTime = 13 s

Time = 266s

smoothSolver:  Solving for Ux, Initial residual = 1.276e-06, Final residual = 9.58805e-08, No Iterations 6
smoothSolver:  Solving for Uy, Initial residual = 1.24466e-06, Final residual = 1.2362e-07, No Iterations 2
GAMG:  Solving for p, Initial residual = 5.20481e-06, Final residual = 6.91731e-07, No Iterations 6
time step continuity errors : sum local = 2.95556e-07, global = -5.44739e-08, cumulative = 0.000422515
smoothSolver:  Solving for ReThetat, Initial residual = 1.29296e-05, Final residual = 1.09902e-06, No Iterations 6
smoothSolver:  Solving for gammaInt, Initial residual = 6.11943e-06, Final residual = 2.28461e-07, No Iterations 1
smoothSolver:  Solving for omega, Initial residual = 7.16412e-09, Final residual = 7.16412e-09, No Iterations 0
smoothSolver:  Solving for k, Initial residual = 2.58144e-06, Final residual = 1.97285e-07, No Iterations 5
ExecutionTime = 12.8619 s  ClockTime = 13 s

Time = 267s

smoothSolver:  Solving for Ux, Initial residual = 1.23808e-06, Final residual = 9.28939e-08, No Iterations 6
smoothSolver:  Solving for Uy, Initial residual = 1.229e-06, Final residual = 1.22469e-07, No Iterations 2
GAMG:  Solving for p, Initial residual = 5.2338e-06, Final residual = 6.92747e-07, No Iterations 6
time step continuity errors : sum local = 2.96019e-07, global = -5.51863e-08, cumulative = 0.00042246
smoothSolver:  Solving for ReThetat, Initial residual = 1.28444e-05, Final residual = 1.09167e-06, No Iterations 6
smoothSolver:  Solving for gammaInt, Initial residual = 6.1813e-06, Final residual = 2.2599e-07, No Iterations 1
smoothSolver:  Solving for omega, Initial residual = 8.36114e-09, Final residual = 8.36114e-09, No Iterations 0
smoothSolver:  Solving for k, Initial residual = 2.61034e-06, Final residual = 1.96274e-07, No Iterations 5
ExecutionTime = 12.9046 s  ClockTime = 13 s

Time = 268s

smoothSolver:  Solving for Ux, Initial residual = 1.20098e-06, Final residual = 8.99371e-08, No Iterations 6
smoothSolver:  Solving for Uy, Initial residual = 1.21807e-06, Final residual = 1.20809e-07, No Iterations 2
GAMG:  Solving for p, Initial residual = 5.24481e-06, Final residual = 6.92632e-07, No Iterations 6
time step continuity errors : sum local = 2.95997e-07, global = -5.58236e-08, cumulative = 0.000422404
smoothSolver:  Solving for ReThetat, Initial residual = 1.27696e-05, Final residual = 1.08437e-06, No Iterations 6
smoothSolver:  Solving for gammaInt, Initial residual = 6.18792e-06, Final residual = 2.24765e-07, No Iterations 1
smoothSolver:  Solving for omega, Initial residual = 9.57923e-09, Final residual = 9.57923e-09, No Iterations 0
smoothSolver:  Solving for k, Initial residual = 2.65302e-06, Final residual = 1.96671e-07, No Iterations 5
ExecutionTime = 12.9479 s  ClockTime = 13 s

Time = 269s

smoothSolver:  Solving for Ux, Initial residual = 1.16443e-06, Final residual = 8.70045e-08, No Iterations 6
smoothSolver:  Solving for Uy, Initial residual = 1.20681e-06, Final residual = 1.18892e-07, No Iterations 2
GAMG:  Solving for p, Initial residual = 5.23136e-06, Final residual = 6.90128e-07, No Iterations 6
time step continuity errors : sum local = 2.94955e-07, global = -5.62329e-08, cumulative = 0.000422348
smoothSolver:  Solving for ReThetat, Initial residual = 1.26889e-05, Final residual = 1.0771e-06, No Iterations 6
smoothSolver:  Solving for gammaInt, Initial residual = 6.1806e-06, Final residual = 2.24478e-07, No Iterations 1
smoothSolver:  Solving for omega, Initial residual = 1.07661e-08, Final residual = 4.51802e-09, No Iterations 1
smoothSolver:  Solving for k, Initial residual = 2.23316e-06, Final residual = 1.7329e-07, No Iterations 5
ExecutionTime = 12.9909 s  ClockTime = 13 s

Time = 270s

smoothSolver:  Solving for Ux, Initial residual = 1.13339e-06, Final residual = 8.47558e-08, No Iterations 6
smoothSolver:  Solving for Uy, Initial residual = 1.18962e-06, Final residual = 1.15385e-07, No Iterations 2
GAMG:  Solving for p, Initial residual = 4.94636e-06, Final residual = 6.67357e-07, No Iterations 6
time step continuity errors : sum local = 2.85249e-07, global = -5.47646e-08, cumulative = 0.000422293
smoothSolver:  Solving for ReThetat, Initial residual = 1.2559e-05, Final residual = 1.06983e-06, No Iterations 6
smoothSolver:  Solving for gammaInt, Initial residual = 5.51557e-06, Final residual = 2.18073e-07, No Iterations 1
smoothSolver:  Solving for omega, Initial residual = 6.28406e-09, Final residual = 6.28406e-09, No Iterations 0
smoothSolver:  Solving for k, Initial residual = 2.18318e-06, Final residual = 1.68579e-07, No Iterations 5
ExecutionTime = 13.0347 s  ClockTime = 13 s

Time = 271s

smoothSolver:  Solving for Ux, Initial residual = 1.09807e-06, Final residual = 8.21266e-08, No Iterations 6
smoothSolver:  Solving for Uy, Initial residual = 1.15836e-06, Final residual = 1.13667e-07, No Iterations 2
GAMG:  Solving for p, Initial residual = 4.89962e-06, Final residual = 6.57488e-07, No Iterations 6
time step continuity errors : sum local = 2.81054e-07, global = -5.45345e-08, cumulative = 0.000422239
smoothSolver:  Solving for ReThetat, Initial residual = 1.24411e-05, Final residual = 1.06261e-06, No Iterations 6
smoothSolver:  Solving for gammaInt, Initial residual = 5.91333e-06, Final residual = 2.19721e-07, No Iterations 1
smoothSolver:  Solving for omega, Initial residual = 6.90761e-09, Final residual = 6.90761e-09, No Iterations 0
smoothSolver:  Solving for k, Initial residual = 2.17551e-06, Final residual = 1.66856e-07, No Iterations 5
ExecutionTime = 13.0795 s  ClockTime = 13 s

Time = 272s

smoothSolver:  Solving for Ux, Initial residual = 1.06449e-06, Final residual = 7.9541e-08, No Iterations 6
smoothSolver:  Solving for Uy, Initial residual = 1.13054e-06, Final residual = 1.11239e-07, No Iterations 2
GAMG:  Solving for p, Initial residual = 4.84667e-06, Final residual = 6.46872e-07, No Iterations 6
time step continuity errors : sum local = 2.7654e-07, global = -5.37558e-08, cumulative = 0.000422185
smoothSolver:  Solving for ReThetat, Initial residual = 1.23527e-05, Final residual = 1.05543e-06, No Iterations 6
smoothSolver:  Solving for gammaInt, Initial residual = 5.98608e-06, Final residual = 2.20781e-07, No Iterations 1
smoothSolver:  Solving for omega, Initial residual = 7.7609e-09, Final residual = 7.7609e-09, No Iterations 0
smoothSolver:  Solving for k, Initial residual = 2.1968e-06, Final residual = 1.65799e-07, No Iterations 5
ExecutionTime = 13.1227 s  ClockTime = 13 s

Time = 273s

smoothSolver:  Solving for Ux, Initial residual = 1.03159e-06, Final residual = 7.69842e-08, No Iterations 6
smoothSolver:  Solving for Uy, Initial residual = 1.10277e-06, Final residual = 1.08663e-07, No Iterations 2
GAMG:  Solving for p, Initial residual = 4.77283e-06, Final residual = 9.84829e-07, No Iterations 4
time step continuity errors : sum local = 4.21051e-07, global = -1.16769e-07, cumulative = 0.000422068
smoothSolver:  Solving for ReThetat, Initial residual = 1.2263e-05, Final residual = 1.04829e-06, No Iterations 6
smoothSolver:  Solving for gammaInt, Initial residual = 5.99961e-06, Final residual = 2.21601e-07, No Iterations 1
smoothSolver:  Solving for omega, Initial residual = 8.80196e-09, Final residual = 8.80196e-09, No Iterations 0
smoothSolver:  Solving for k, Initial residual = 2.23498e-06, Final residual = 1.66073e-07, No Iterations 5
ExecutionTime = 13.1634 s  ClockTime = 13 s

Time = 274s

smoothSolver:  Solving for Ux, Initial residual = 9.96319e-07, Final residual = 7.44598e-08, No Iterations 6
smoothSolver:  Solving for Uy, Initial residual = 1.02841e-06, Final residual = 6.3135e-08, No Iterations 3
GAMG:  Solving for p, Initial residual = 5.28481e-06, Final residual = 7.14603e-07, No Iterations 6
time step continuity errors : sum local = 3.05539e-07, global = -5.73149e-08, cumulative = 0.000422011
smoothSolver:  Solving for ReThetat, Initial residual = 1.22152e-05, Final residual = 1.04119e-06, No Iterations 6
smoothSolver:  Solving for gammaInt, Initial residual = 5.99505e-06, Final residual = 2.22377e-07, No Iterations 1
smoothSolver:  Solving for omega, Initial residual = 9.75622e-09, Final residual = 9.75622e-09, No Iterations 0
smoothSolver:  Solving for k, Initial residual = 2.27083e-06, Final residual = 1.66989e-07, No Iterations 5
ExecutionTime = 13.21 s  ClockTime = 13 s

Time = 275s

smoothSolver:  Solving for Ux, Initial residual = 9.69552e-07, Final residual = 7.1933e-08, No Iterations 6
smoothSolver:  Solving for Uy, Initial residual = 1.05645e-06, Final residual = 9.4917e-08, No Iterations 2
GAMG:  Solving for p, Initial residual = 4.45048e-06, Final residual = 9.36227e-07, No Iterations 4
time step continuity errors : sum local = 4.00337e-07, global = -1.07412e-07, cumulative = 0.000421904
smoothSolver:  Solving for ReThetat, Initial residual = 1.21076e-05, Final residual = 1.03414e-06, No Iterations 6
smoothSolver:  Solving for gammaInt, Initial residual = 5.97782e-06, Final residual = 2.23021e-07, No Iterations 1
smoothSolver:  Solving for omega, Initial residual = 1.07433e-08, Final residual = 4.55093e-09, No Iterations 1
smoothSolver:  Solving for k, Initial residual = 1.83281e-06, Final residual = 1.41746e-07, No Iterations 5
ExecutionTime = 13.251 s  ClockTime = 13 s

Time = 276s

smoothSolver:  Solving for Ux, Initial residual = 9.38649e-07, Final residual = 7.01026e-08, No Iterations 6
smoothSolver:  Solving for Uy, Initial residual = 9.75987e-07, Final residual = 9.23472e-08, No Iterations 2
GAMG:  Solving for p, Initial residual = 4.36854e-06, Final residual = 6.51421e-07, No Iterations 6
time step continuity errors : sum local = 2.7857e-07, global = -5.04737e-08, cumulative = 0.000421853
smoothSolver:  Solving for ReThetat, Initial residual = 1.20045e-05, Final residual = 1.02708e-06, No Iterations 6
smoothSolver:  Solving for gammaInt, Initial residual = 5.33904e-06, Final residual = 2.16726e-07, No Iterations 1
smoothSolver:  Solving for omega, Initial residual = 6.2214e-09, Final residual = 6.2214e-09, No Iterations 0
smoothSolver:  Solving for k, Initial residual = 1.78831e-06, Final residual = 1.37465e-07, No Iterations 5
ExecutionTime = 13.2932 s  ClockTime = 13 s


SIMPLE solution converged in 276 iterations

End

