/*---------------------------------------------------------------------------*\
  =========                 |
  \\      /  F ield         | OpenFOAM: The Open Source CFD Toolbox
   \\    /   O peration     | Website:  https://openfoam.org
    \\  /    A nd           | Version:  13
     \\/     M anipulation  |
\*---------------------------------------------------------------------------*/
Build  : 13-441953dfbb42
Exec   : foamRun
Date   : May 17 2026
Time   : 11:52:59
Host   : "B3D-adscfd01"
PID    : 3365954
I/O    : uncollated
Case   : /home/ads-user/openfoam/openfoam-T3A-transition
nProcs : 1
sigFpe : Enabling floating point exception trapping (FOAM_SIGFPE).
fileModificationChecking : Monitoring run-time modified files using timeStampMaster (fileModificationSkew 10)
allowSystemOperations : Allowing user-supplied system call operations

// * * * * * * * * * * * * * * * * * * * * * * * * * * * * * * * * * * * * * //
Create time

Create mesh for time = 0

Selecting solver incompressibleFluid
Selecting viscosity model constant
Selecting turbulence model type RAS
    Selecting RAS turbulence model kOmegaSSTLM
bounding k, min: 0 max: 0.047633 average: 0.047633
No MRF models present

Selecting patchDistMethod meshWave

SIMPLE: Convergence criteria found
        p: tolerance 1e-05
        U: tolerance 1e-06
        "(k|omega|gammaInt|ReThetat)": tolerance 0.0001


SIMPLE: Operating solver in steady-state mode with 1 outer corrector
SIMPLE: Operating solver in SIMPLE mode



Starting time loop

wallShearStress wallShearStress:
    processing all wall patches

Reading set description:
    line

Reading set description:
    line

Time = 1s

smoothSolver:  Solving for Ux, Initial residual = 1, Final residual = 0.0711041, No Iterations 5
smoothSolver:  Solving for Uy, Initial residual = 1, Final residual = 0.0935787, No Iterations 3
GAMG:  Solving for p, Initial residual = 1, Final residual = 0.077409, No Iterations 28
time step continuity errors : sum local = 0.000108496, global = -3.55169e-06, cumulative = -3.55169e-06
smoothSolver:  Solving for ReThetat, Initial residual = 1, Final residual = 0.0326887, No Iterations 1
smoothSolver:  Solving for gammaInt, Initial residual = 1, Final residual = 1.11003, No Iterations 10
smoothSolver:  Solving for omega, Initial residual = 0.0507468, Final residual = 0.00473087, No Iterations 3
smoothSolver:  Solving for k, Initial residual = 1, Final residual = 0.0586418, No Iterations 1
ExecutionTime = 0.296158 s  ClockTime = 0 s

Time = 2s

smoothSolver:  Solving for Ux, Initial residual = 0.187721, Final residual = 0.0137934, No Iterations 2
smoothSolver:  Solving for Uy, Initial residual = 0.0375304, Final residual = 0.00369258, No Iterations 2
GAMG:  Solving for p, Initial residual = 0.00280243, Final residual = 0.000250529, No Iterations 16
time step continuity errors : sum local = 0.00158354, global = 0.000222919, cumulative = 0.000219367
smoothSolver:  Solving for ReThetat, Initial residual = 0.724441, Final residual = 0.01308, No Iterations 1
smoothSolver:  Solving for gammaInt, Initial residual = 1, Final residual = 0.018033, No Iterations 1
smoothSolver:  Solving for omega, Initial residual = 0.136689, Final residual = 0.000452321, No Iterations 1
smoothSolver:  Solving for k, Initial residual = 0.306566, Final residual = 0.0280076, No Iterations 1
ExecutionTime = 0.343593 s  ClockTime = 0 s

Time = 3s

smoothSolver:  Solving for Ux, Initial residual = 0.0324607, Final residual = 0.00308982, No Iterations 3
smoothSolver:  Solving for Uy, Initial residual = 0.0174518, Final residual = 0.000950561, No Iterations 3
GAMG:  Solving for p, Initial residual = 0.00727492, Final residual = 0.000702771, No Iterations 12
time step continuity errors : sum local = 0.00123599, global = 0.000285608, cumulative = 0.000504976
smoothSolver:  Solving for ReThetat, Initial residual = 0.341628, Final residual = 0.00661096, No Iterations 1
smoothSolver:  Solving for gammaInt, Initial residual = 0.0372374, Final residual = 0.00309436, No Iterations 2
smoothSolver:  Solving for omega, Initial residual = 0.00778608, Final residual = 9.82337e-05, No Iterations 1
smoothSolver:  Solving for k, Initial residual = 0.163668, Final residual = 0.00696202, No Iterations 2
ExecutionTime = 0.389245 s  ClockTime = 1 s

Time = 4s

smoothSolver:  Solving for Ux, Initial residual = 0.0139605, Final residual = 0.0011956, No Iterations 4
smoothSolver:  Solving for Uy, Initial residual = 0.0116323, Final residual = 0.000742061, No Iterations 3
GAMG:  Solving for p, Initial residual = 0.011159, Final residual = 0.00103993, No Iterations 10
time step continuity errors : sum local = 0.000668954, global = 0.000127475, cumulative = 0.00063245
smoothSolver:  Solving for ReThetat, Initial residual = 0.213025, Final residual = 0.00464921, No Iterations 1
smoothSolver:  Solving for gammaInt, Initial residual = 0.0121658, Final residual = 0.000977358, No Iterations 3
smoothSolver:  Solving for omega, Initial residual = 0.00785313, Final residual = 6.52028e-05, No Iterations 1
smoothSolver:  Solving for k, Initial residual = 0.0985414, Final residual = 0.00549069, No Iterations 2
ExecutionTime = 0.434339 s  ClockTime = 1 s

Time = 5s

smoothSolver:  Solving for Ux, Initial residual = 0.0087428, Final residual = 0.00055236, No Iterations 5
smoothSolver:  Solving for Uy, Initial residual = 0.00853271, Final residual = 0.000662156, No Iterations 3
GAMG:  Solving for p, Initial residual = 0.0164897, Final residual = 0.000890347, No Iterations 8
time step continuity errors : sum local = 0.000324895, global = 5.61995e-05, cumulative = 0.00068865
smoothSolver:  Solving for ReThetat, Initial residual = 0.149758, Final residual = 0.00352403, No Iterations 1
smoothSolver:  Solving for gammaInt, Initial residual = 0.00575157, Final residual = 0.000389851, No Iterations 3
smoothSolver:  Solving for omega, Initial residual = 0.00313119, Final residual = 6.09948e-05, No Iterations 1
smoothSolver:  Solving for k, Initial residual = 0.0686426, Final residual = 0.0047654, No Iterations 2
ExecutionTime = 0.475439 s  ClockTime = 1 s

Time = 6s

smoothSolver:  Solving for Ux, Initial residual = 0.00662569, Final residual = 0.000431706, No Iterations 5
smoothSolver:  Solving for Uy, Initial residual = 0.00687647, Final residual = 0.000620609, No Iterations 3
GAMG:  Solving for p, Initial residual = 0.0170813, Final residual = 0.0013414, No Iterations 7
time step continuity errors : sum local = 0.000451781, global = -0.000114647, cumulative = 0.000574003
smoothSolver:  Solving for ReThetat, Initial residual = 0.113206, Final residual = 0.00280484, No Iterations 1
smoothSolver:  Solving for gammaInt, Initial residual = 0.00492322, Final residual = 0.000338057, No Iterations 2
smoothSolver:  Solving for omega, Initial residual = 0.00230176, Final residual = 4.08102e-05, No Iterations 1
smoothSolver:  Solving for k, Initial residual = 0.0503406, Final residual = 0.00422521, No Iterations 2
ExecutionTime = 0.515517 s  ClockTime = 1 s

Time = 7s

smoothSolver:  Solving for Ux, Initial residual = 0.00496134, Final residual = 0.000355795, No Iterations 5
smoothSolver:  Solving for Uy, Initial residual = 0.00558198, Final residual = 0.000325828, No Iterations 4
GAMG:  Solving for p, Initial residual = 0.0139851, Final residual = 0.000793191, No Iterations 8
time step continuity errors : sum local = 0.000257232, global = 4.85036e-05, cumulative = 0.000622506
smoothSolver:  Solving for ReThetat, Initial residual = 0.0896848, Final residual = 0.00231172, No Iterations 1
smoothSolver:  Solving for gammaInt, Initial residual = 0.00654396, Final residual = 0.000455304, No Iterations 2
smoothSolver:  Solving for omega, Initial residual = 0.00114647, Final residual = 2.50246e-05, No Iterations 1
smoothSolver:  Solving for k, Initial residual = 0.0389869, Final residual = 0.00381256, No Iterations 2
ExecutionTime = 0.557234 s  ClockTime = 1 s

Time = 8s

smoothSolver:  Solving for Ux, Initial residual = 0.00415613, Final residual = 0.000299873, No Iterations 5
smoothSolver:  Solving for Uy, Initial residual = 0.00476288, Final residual = 0.000289172, No Iterations 4
GAMG:  Solving for p, Initial residual = 0.0128187, Final residual = 0.000995254, No Iterations 7
time step continuity errors : sum local = 0.000321718, global = -2.648e-05, cumulative = 0.000596026
smoothSolver:  Solving for ReThetat, Initial residual = 0.0738297, Final residual = 0.00194714, No Iterations 1
smoothSolver:  Solving for gammaInt, Initial residual = 0.00511542, Final residual = 0.000330585, No Iterations 2
smoothSolver:  Solving for omega, Initial residual = 0.000748041, Final residual = 1.99111e-05, No Iterations 1
smoothSolver:  Solving for k, Initial residual = 0.0311262, Final residual = 0.00203915, No Iterations 3
ExecutionTime = 0.598304 s  ClockTime = 1 s

Time = 9s

smoothSolver:  Solving for Ux, Initial residual = 0.00354395, Final residual = 0.000259799, No Iterations 5
smoothSolver:  Solving for Uy, Initial residual = 0.00413887, Final residual = 0.000252023, No Iterations 4
GAMG:  Solving for p, Initial residual = 0.0126804, Final residual = 0.000912773, No Iterations 6
time step continuity errors : sum local = 0.000260252, global = 1.08907e-05, cumulative = 0.000606917
smoothSolver:  Solving for ReThetat, Initial residual = 0.0653449, Final residual = 0.0017179, No Iterations 1
smoothSolver:  Solving for gammaInt, Initial residual = 0.00372231, Final residual = 0.000190039, No Iterations 2
smoothSolver:  Solving for omega, Initial residual = 0.000400213, Final residual = 1.03955e-05, No Iterations 1
smoothSolver:  Solving for k, Initial residual = 0.0255379, Final residual = 0.00180667, No Iterations 3
ExecutionTime = 0.638995 s  ClockTime = 1 s

Time = 10s

smoothSolver:  Solving for Ux, Initial residual = 0.00295383, Final residual = 0.00022542, No Iterations 5
smoothSolver:  Solving for Uy, Initial residual = 0.00369945, Final residual = 0.000215325, No Iterations 4
GAMG:  Solving for p, Initial residual = 0.0124728, Final residual = 0.00107363, No Iterations 6
time step continuity errors : sum local = 0.000262349, global = -4.97485e-05, cumulative = 0.000557169
smoothSolver:  Solving for ReThetat, Initial residual = 0.0568434, Final residual = 0.00151464, No Iterations 1
smoothSolver:  Solving for gammaInt, Initial residual = 0.00826808, Final residual = 0.00036875, No Iterations 2
smoothSolver:  Solving for omega, Initial residual = 0.000258571, Final residual = 1.04607e-05, No Iterations 1
smoothSolver:  Solving for k, Initial residual = 0.021273, Final residual = 0.0015958, No Iterations 3
ExecutionTime = 0.678562 s  ClockTime = 1 s

Time = 11s

smoothSolver:  Solving for Ux, Initial residual = 0.00262033, Final residual = 0.00020128, No Iterations 5
smoothSolver:  Solving for Uy, Initial residual = 0.00342656, Final residual = 0.0001836, No Iterations 4
GAMG:  Solving for p, Initial residual = 0.0145984, Final residual = 0.00134585, No Iterations 5
time step continuity errors : sum local = 0.00025092, global = 3.98487e-06, cumulative = 0.000561153
smoothSolver:  Solving for ReThetat, Initial residual = 0.0489646, Final residual = 0.00134196, No Iterations 1
smoothSolver:  Solving for gammaInt, Initial residual = 0.00392906, Final residual = 0.000153387, No Iterations 2
smoothSolver:  Solving for omega, Initial residual = 0.000141436, Final residual = 6.08922e-06, No Iterations 1
smoothSolver:  Solving for k, Initial residual = 0.0180573, Final residual = 0.00138984, No Iterations 3
ExecutionTime = 0.717889 s  ClockTime = 1 s

Time = 12s

smoothSolver:  Solving for Ux, Initial residual = 0.00225723, Final residual = 0.000178523, No Iterations 5
smoothSolver:  Solving for Uy, Initial residual = 0.00321295, Final residual = 0.000300284, No Iterations 3
GAMG:  Solving for p, Initial residual = 0.0155106, Final residual = 0.0013188, No Iterations 6
time step continuity errors : sum local = 0.000186294, global = -3.98001e-05, cumulative = 0.000521353
smoothSolver:  Solving for ReThetat, Initial residual = 0.0420839, Final residual = 0.00119423, No Iterations 1
smoothSolver:  Solving for gammaInt, Initial residual = 0.00815804, Final residual = 0.000279177, No Iterations 2
smoothSolver:  Solving for omega, Initial residual = 9.67723e-05, Final residual = 6.52877e-06, No Iterations 1
smoothSolver:  Solving for k, Initial residual = 0.0155519, Final residual = 0.00120323, No Iterations 3
ExecutionTime = 0.758502 s  ClockTime = 1 s

Time = 13s

smoothSolver:  Solving for Ux, Initial residual = 0.00202196, Final residual = 0.000162935, No Iterations 5
smoothSolver:  Solving for Uy, Initial residual = 0.00304617, Final residual = 0.000266288, No Iterations 3
GAMG:  Solving for p, Initial residual = 0.0198575, Final residual = 0.00165232, No Iterations 5
time step continuity errors : sum local = 0.0001616, global = -3.22582e-06, cumulative = 0.000518127
smoothSolver:  Solving for ReThetat, Initial residual = 0.0363718, Final residual = 0.00106932, No Iterations 1
smoothSolver:  Solving for gammaInt, Initial residual = 0.00420594, Final residual = 0.000136403, No Iterations 2
smoothSolver:  Solving for omega, Initial residual = 5.46625e-05, Final residual = 4.46889e-06, No Iterations 1
smoothSolver:  Solving for k, Initial residual = 0.0135984, Final residual = 0.00101844, No Iterations 3
ExecutionTime = 0.796428 s  ClockTime = 1 s

Time = 14s

smoothSolver:  Solving for Ux, Initial residual = 0.00181042, Final residual = 0.000146772, No Iterations 5
smoothSolver:  Solving for Uy, Initial residual = 0.00288087, Final residual = 0.000239073, No Iterations 3
GAMG:  Solving for p, Initial residual = 0.0247831, Final residual = 0.00225073, No Iterations 5
time step continuity errors : sum local = 0.000147515, global = -2.14327e-06, cumulative = 0.000515984
smoothSolver:  Solving for ReThetat, Initial residual = 0.0314554, Final residual = 0.00096041, No Iterations 1
smoothSolver:  Solving for gammaInt, Initial residual = 0.00732692, Final residual = 0.000205608, No Iterations 2
smoothSolver:  Solving for omega, Initial residual = 4.13614e-05, Final residual = 1.59294e-06, No Iterations 2
smoothSolver:  Solving for k, Initial residual = 0.0120522, Final residual = 0.00086217, No Iterations 3
ExecutionTime = 0.834841 s  ClockTime = 1 s

Time = 15s

smoothSolver:  Solving for Ux, Initial residual = 0.0016295, Final residual = 0.000135484, No Iterations 5
smoothSolver:  Solving for Uy, Initial residual = 0.00273108, Final residual = 0.000219017, No Iterations 3
GAMG:  Solving for p, Initial residual = 0.0399184, Final residual = 0.00334749, No Iterations 6
time step continuity errors : sum local = 0.00011721, global = 1.59283e-05, cumulative = 0.000531913
smoothSolver:  Solving for ReThetat, Initial residual = 0.0272267, Final residual = 0.0008648, No Iterations 1
smoothSolver:  Solving for gammaInt, Initial residual = 0.00736293, Final residual = 0.000167053, No Iterations 2
smoothSolver:  Solving for omega, Initial residual = 2.2109e-05, Final residual = 1.09403e-06, No Iterations 2
smoothSolver:  Solving for k, Initial residual = 0.010809, Final residual = 0.000717092, No Iterations 3
ExecutionTime = 0.875352 s  ClockTime = 1 s

Time = 16s

smoothSolver:  Solving for Ux, Initial residual = 0.00149463, Final residual = 0.000123634, No Iterations 5
smoothSolver:  Solving for Uy, Initial residual = 0.00257189, Final residual = 0.0002057, No Iterations 3
GAMG:  Solving for p, Initial residual = 0.0542882, Final residual = 0.00416673, No Iterations 7
time step continuity errors : sum local = 9.33419e-05, global = -2.28013e-05, cumulative = 0.000509111
smoothSolver:  Solving for ReThetat, Initial residual = 0.0235561, Final residual = 0.000777797, No Iterations 1
smoothSolver:  Solving for gammaInt, Initial residual = 0.00801863, Final residual = 0.000211561, No Iterations 2
smoothSolver:  Solving for omega, Initial residual = 1.9793e-05, Final residual = 1.05121e-06, No Iterations 2
smoothSolver:  Solving for k, Initial residual = 0.00975717, Final residual = 0.00058455, No Iterations 3
ExecutionTime = 0.917321 s  ClockTime = 1 s

Time = 17s

smoothSolver:  Solving for Ux, Initial residual = 0.00137592, Final residual = 0.000115046, No Iterations 5
smoothSolver:  Solving for Uy, Initial residual = 0.00243764, Final residual = 0.000196807, No Iterations 3
GAMG:  Solving for p, Initial residual = 0.0232541, Final residual = 0.00210275, No Iterations 6
time step continuity errors : sum local = 9.69099e-05, global = 2.12864e-05, cumulative = 0.000530398
smoothSolver:  Solving for ReThetat, Initial residual = 0.0205098, Final residual = 0.000701271, No Iterations 1
smoothSolver:  Solving for gammaInt, Initial residual = 0.0064642, Final residual = 0.000147459, No Iterations 2
smoothSolver:  Solving for omega, Initial residual = 1.17098e-05, Final residual = 8.92789e-07, No Iterations 2
smoothSolver:  Solving for k, Initial residual = 0.00883634, Final residual = 0.000465518, No Iterations 3
ExecutionTime = 0.957105 s  ClockTime = 1 s

Time = 18s

smoothSolver:  Solving for Ux, Initial residual = 0.00128439, Final residual = 0.000105898, No Iterations 5
smoothSolver:  Solving for Uy, Initial residual = 0.00228765, Final residual = 0.00019077, No Iterations 3
GAMG:  Solving for p, Initial residual = 0.0155549, Final residual = 0.00127506, No Iterations 7
time step continuity errors : sum local = 8.12492e-05, global = -1.91159e-05, cumulative = 0.000511282
smoothSolver:  Solving for ReThetat, Initial residual = 0.0178009, Final residual = 0.000632774, No Iterations 1
smoothSolver:  Solving for gammaInt, Initial residual = 0.00565856, Final residual = 0.00014174, No Iterations 2
smoothSolver:  Solving for omega, Initial residual = 1.19184e-05, Final residual = 8.39756e-07, No Iterations 2
smoothSolver:  Solving for k, Initial residual = 0.00803319, Final residual = 0.000798288, No Iterations 2
ExecutionTime = 0.998855 s  ClockTime = 1 s

Time = 19s

smoothSolver:  Solving for Ux, Initial residual = 0.0011875, Final residual = 9.87341e-05, No Iterations 5
smoothSolver:  Solving for Uy, Initial residual = 0.0021572, Final residual = 0.000185689, No Iterations 3
GAMG:  Solving for p, Initial residual = 0.0110482, Final residual = 0.000995486, No Iterations 6
time step continuity errors : sum local = 7.80591e-05, global = 1.76973e-05, cumulative = 0.000528979
smoothSolver:  Solving for ReThetat, Initial residual = 0.0154824, Final residual = 0.000558669, No Iterations 1
smoothSolver:  Solving for gammaInt, Initial residual = 0.00476141, Final residual = 0.000395871, No Iterations 1
smoothSolver:  Solving for omega, Initial residual = 8.05596e-06, Final residual = 7.45691e-07, No Iterations 2
smoothSolver:  Solving for k, Initial residual = 0.00730791, Final residual = 0.000646166, No Iterations 2
ExecutionTime = 1.03831 s  ClockTime = 1 s

Time = 20s

smoothSolver:  Solving for Ux, Initial residual = 0.00110855, Final residual = 9.14649e-05, No Iterations 5
smoothSolver:  Solving for Uy, Initial residual = 0.00202549, Final residual = 0.00018108, No Iterations 3
GAMG:  Solving for p, Initial residual = 0.00891467, Final residual = 0.000650171, No Iterations 7
time step continuity errors : sum local = 5.76824e-05, global = -1.29281e-05, cumulative = 0.000516051
smoothSolver:  Solving for ReThetat, Initial residual = 0.0134436, Final residual = 0.000499174, No Iterations 1
smoothSolver:  Solving for gammaInt, Initial residual = 0.00577042, Final residual = 0.000140101, No Iterations 2
smoothSolver:  Solving for omega, Initial residual = 8.48629e-06, Final residual = 6.90851e-07, No Iterations 2
smoothSolver:  Solving for k, Initial residual = 0.00667636, Final residual = 0.000530353, No Iterations 2
ExecutionTime = 1.0787 s  ClockTime = 1 s

Time = 21s

smoothSolver:  Solving for Ux, Initial residual = 0.00102859, Final residual = 8.53806e-05, No Iterations 5
smoothSolver:  Solving for Uy, Initial residual = 0.00191462, Final residual = 0.000175334, No Iterations 3
GAMG:  Solving for p, Initial residual = 0.00740221, Final residual = 0.000726075, No Iterations 6
time step continuity errors : sum local = 6.84619e-05, global = 1.19745e-05, cumulative = 0.000528025
smoothSolver:  Solving for ReThetat, Initial residual = 0.0117569, Final residual = 0.000450327, No Iterations 1
smoothSolver:  Solving for gammaInt, Initial residual = 0.00388686, Final residual = 0.00030849, No Iterations 1
smoothSolver:  Solving for omega, Initial residual = 6.44375e-06, Final residual = 6.24775e-07, No Iterations 2
smoothSolver:  Solving for k, Initial residual = 0.00606012, Final residual = 0.000429497, No Iterations 2
ExecutionTime = 1.11842 s  ClockTime = 1 s

Time = 22s

smoothSolver:  Solving for Ux, Initial residual = 0.00095991, Final residual = 7.94507e-05, No Iterations 5
smoothSolver:  Solving for Uy, Initial residual = 0.00181753, Final residual = 0.000168485, No Iterations 3
GAMG:  Solving for p, Initial residual = 0.00667627, Final residual = 0.000556922, No Iterations 7
time step continuity errors : sum local = 5.32333e-05, global = -1.29626e-05, cumulative = 0.000515063
smoothSolver:  Solving for ReThetat, Initial residual = 0.0102184, Final residual = 0.000407489, No Iterations 1
smoothSolver:  Solving for gammaInt, Initial residual = 0.00375045, Final residual = 0.000302026, No Iterations 1
smoothSolver:  Solving for omega, Initial residual = 6.72746e-06, Final residual = 5.75897e-07, No Iterations 2
smoothSolver:  Solving for k, Initial residual = 0.00548776, Final residual = 0.000350824, No Iterations 2
ExecutionTime = 1.15733 s  ClockTime = 1 s

Time = 23s

smoothSolver:  Solving for Ux, Initial residual = 0.000894695, Final residual = 7.4272e-05, No Iterations 5
smoothSolver:  Solving for Uy, Initial residual = 0.00173158, Final residual = 0.000160262, No Iterations 3
GAMG:  Solving for p, Initial residual = 0.00616249, Final residual = 0.000568436, No Iterations 7
time step continuity errors : sum local = 5.27626e-05, global = -1.51249e-05, cumulative = 0.000499938
smoothSolver:  Solving for ReThetat, Initial residual = 0.00890999, Final residual = 0.000370145, No Iterations 1
smoothSolver:  Solving for gammaInt, Initial residual = 0.00434753, Final residual = 0.000387384, No Iterations 1
smoothSolver:  Solving for omega, Initial residual = 5.66587e-06, Final residual = 5.25535e-07, No Iterations 2
smoothSolver:  Solving for k, Initial residual = 0.00494883, Final residual = 0.000290498, No Iterations 2
ExecutionTime = 1.19712 s  ClockTime = 1 s

Time = 24s

smoothSolver:  Solving for Ux, Initial residual = 0.000840072, Final residual = 6.93673e-05, No Iterations 5
smoothSolver:  Solving for Uy, Initial residual = 0.0016664, Final residual = 0.000151071, No Iterations 3
GAMG:  Solving for p, Initial residual = 0.00621272, Final residual = 0.000522138, No Iterations 8
time step continuity errors : sum local = 4.43984e-05, global = -1.04164e-05, cumulative = 0.000489522
smoothSolver:  Solving for ReThetat, Initial residual = 0.0077531, Final residual = 0.000336823, No Iterations 1
smoothSolver:  Solving for gammaInt, Initial residual = 0.00359608, Final residual = 0.00032397, No Iterations 1
smoothSolver:  Solving for omega, Initial residual = 5.61532e-06, Final residual = 4.84253e-07, No Iterations 2
smoothSolver:  Solving for k, Initial residual = 0.00443974, Final residual = 0.000244898, No Iterations 2
ExecutionTime = 1.23771 s  ClockTime = 1 s

Time = 25s

smoothSolver:  Solving for Ux, Initial residual = 0.000789289, Final residual = 6.49837e-05, No Iterations 5
smoothSolver:  Solving for Uy, Initial residual = 0.00160027, Final residual = 0.000141077, No Iterations 3
GAMG:  Solving for p, Initial residual = 0.00660688, Final residual = 0.000614762, No Iterations 8
time step continuity errors : sum local = 4.58596e-05, global = -1.02425e-05, cumulative = 0.000479279
smoothSolver:  Solving for ReThetat, Initial residual = 0.00672644, Final residual = 0.000306592, No Iterations 1
smoothSolver:  Solving for gammaInt, Initial residual = 0.0027232, Final residual = 0.000219237, No Iterations 1
smoothSolver:  Solving for omega, Initial residual = 5.01686e-06, Final residual = 4.45842e-07, No Iterations 2
smoothSolver:  Solving for k, Initial residual = 0.00396131, Final residual = 0.000210768, No Iterations 2
ExecutionTime = 1.28062 s  ClockTime = 1 s

Time = 26s

smoothSolver:  Solving for Ux, Initial residual = 0.000744457, Final residual = 6.0848e-05, No Iterations 5
smoothSolver:  Solving for Uy, Initial residual = 0.00153372, Final residual = 0.000130666, No Iterations 3
GAMG:  Solving for p, Initial residual = 0.00735411, Final residual = 0.000593207, No Iterations 10
time step continuity errors : sum local = 3.74838e-05, global = -9.66377e-06, cumulative = 0.000469615
smoothSolver:  Solving for ReThetat, Initial residual = 0.00583077, Final residual = 0.000279466, No Iterations 1
smoothSolver:  Solving for gammaInt, Initial residual = 0.00220545, Final residual = 0.000161692, No Iterations 1
smoothSolver:  Solving for omega, Initial residual = 4.7931e-06, Final residual = 4.13361e-07, No Iterations 2
smoothSolver:  Solving for k, Initial residual = 0.00351421, Final residual = 0.000185152, No Iterations 2
ExecutionTime = 1.32451 s  ClockTime = 1 s

Time = 27s

smoothSolver:  Solving for Ux, Initial residual = 0.000702891, Final residual = 5.71198e-05, No Iterations 5
smoothSolver:  Solving for Uy, Initial residual = 0.00145724, Final residual = 0.000120084, No Iterations 3
GAMG:  Solving for p, Initial residual = 0.00879386, Final residual = 0.000764691, No Iterations 10
time step continuity errors : sum local = 3.84999e-05, global = -9.73705e-06, cumulative = 0.000459878
smoothSolver:  Solving for ReThetat, Initial residual = 0.00504966, Final residual = 0.000255253, No Iterations 1
smoothSolver:  Solving for gammaInt, Initial residual = 0.00185413, Final residual = 0.000119464, No Iterations 1
smoothSolver:  Solving for omega, Initial residual = 4.39052e-06, Final residual = 3.83892e-07, No Iterations 2
smoothSolver:  Solving for k, Initial residual = 0.00310053, Final residual = 0.000166348, No Iterations 2
ExecutionTime = 1.36813 s  ClockTime = 1 s

Time = 28s

smoothSolver:  Solving for Ux, Initial residual = 0.000665743, Final residual = 5.36123e-05, No Iterations 5
smoothSolver:  Solving for Uy, Initial residual = 0.00138322, Final residual = 0.000109697, No Iterations 3
GAMG:  Solving for p, Initial residual = 0.0114467, Final residual = 0.000962753, No Iterations 10
time step continuity errors : sum local = 3.545e-05, global = -1.0881e-05, cumulative = 0.000448997
smoothSolver:  Solving for ReThetat, Initial residual = 0.00439023, Final residual = 0.000235158, No Iterations 1
smoothSolver:  Solving for gammaInt, Initial residual = 0.00153778, Final residual = 9.57632e-05, No Iterations 1
smoothSolver:  Solving for omega, Initial residual = 4.12943e-06, Final residual = 3.58029e-07, No Iterations 2
smoothSolver:  Solving for k, Initial residual = 0.00272222, Final residual = 0.000152198, No Iterations 2
ExecutionTime = 1.4128 s  ClockTime = 2 s

Time = 29s

smoothSolver:  Solving for Ux, Initial residual = 0.000629964, Final residual = 5.04386e-05, No Iterations 5
smoothSolver:  Solving for Uy, Initial residual = 0.00129989, Final residual = 9.96657e-05, No Iterations 3
GAMG:  Solving for p, Initial residual = 0.0175048, Final residual = 0.00159192, No Iterations 10
time step continuity errors : sum local = 3.65749e-05, global = -1.1698e-05, cumulative = 0.000437299
smoothSolver:  Solving for ReThetat, Initial residual = 0.00385029, Final residual = 0.000223848, No Iterations 1
smoothSolver:  Solving for gammaInt, Initial residual = 0.00110777, Final residual = 7.3733e-05, No Iterations 1
smoothSolver:  Solving for omega, Initial residual = 3.8131e-06, Final residual = 3.34265e-07, No Iterations 2
smoothSolver:  Solving for k, Initial residual = 0.00237952, Final residual = 0.000141419, No Iterations 2
ExecutionTime = 1.45666 s  ClockTime = 2 s

Time = 30s

smoothSolver:  Solving for Ux, Initial residual = 0.000598769, Final residual = 4.74634e-05, No Iterations 5
smoothSolver:  Solving for Uy, Initial residual = 0.00122468, Final residual = 9.06025e-05, No Iterations 3
GAMG:  Solving for p, Initial residual = 0.0234982, Final residual = 0.00201344, No Iterations 10
time step continuity errors : sum local = 3.29559e-05, global = -1.23923e-05, cumulative = 0.000424907
smoothSolver:  Solving for ReThetat, Initial residual = 0.00340969, Final residual = 0.000215293, No Iterations 1
smoothSolver:  Solving for gammaInt, Initial residual = 0.000698293, Final residual = 5.12407e-05, No Iterations 1
smoothSolver:  Solving for omega, Initial residual = 3.55718e-06, Final residual = 3.12669e-07, No Iterations 2
smoothSolver:  Solving for k, Initial residual = 0.00207209, Final residual = 0.000133359, No Iterations 2
ExecutionTime = 1.50038 s  ClockTime = 2 s

Time = 31s

smoothSolver:  Solving for Ux, Initial residual = 0.000567065, Final residual = 4.47581e-05, No Iterations 5
smoothSolver:  Solving for Uy, Initial residual = 0.00114512, Final residual = 8.23878e-05, No Iterations 3
GAMG:  Solving for p, Initial residual = 0.0119403, Final residual = 0.00113094, No Iterations 10
time step continuity errors : sum local = 3.45313e-05, global = -1.20633e-05, cumulative = 0.000412844
smoothSolver:  Solving for ReThetat, Initial residual = 0.00305794, Final residual = 0.000207231, No Iterations 1
smoothSolver:  Solving for gammaInt, Initial residual = 0.000783291, Final residual = 4.88801e-05, No Iterations 1
smoothSolver:  Solving for omega, Initial residual = 3.29108e-06, Final residual = 2.92634e-07, No Iterations 2
smoothSolver:  Solving for k, Initial residual = 0.00179978, Final residual = 0.000127849, No Iterations 2
ExecutionTime = 1.54476 s  ClockTime = 2 s

Time = 32s

smoothSolver:  Solving for Ux, Initial residual = 0.000540311, Final residual = 4.22567e-05, No Iterations 5
smoothSolver:  Solving for Uy, Initial residual = 0.00107239, Final residual = 7.551e-05, No Iterations 3
GAMG:  Solving for p, Initial residual = 0.00791958, Final residual = 0.00071297, No Iterations 10
time step continuity errors : sum local = 3.15259e-05, global = -1.17937e-05, cumulative = 0.00040105
smoothSolver:  Solving for ReThetat, Initial residual = 0.00277763, Final residual = 0.00019894, No Iterations 1
smoothSolver:  Solving for gammaInt, Initial residual = 0.00100283, Final residual = 5.11947e-05, No Iterations 1
smoothSolver:  Solving for omega, Initial residual = 3.0561e-06, Final residual = 2.74106e-07, No Iterations 2
smoothSolver:  Solving for k, Initial residual = 0.00156208, Final residual = 0.000123875, No Iterations 2
ExecutionTime = 1.58871 s  ClockTime = 2 s

Time = 33s

smoothSolver:  Solving for Ux, Initial residual = 0.000512821, Final residual = 4.00142e-05, No Iterations 5
smoothSolver:  Solving for Uy, Initial residual = 0.000997539, Final residual = 7.02036e-05, No Iterations 3
GAMG:  Solving for p, Initial residual = 0.00575773, Final residual = 0.000560651, No Iterations 10
time step continuity errors : sum local = 3.22482e-05, global = -1.076e-05, cumulative = 0.00039029
smoothSolver:  Solving for ReThetat, Initial residual = 0.00256539, Final residual = 0.000190474, No Iterations 1
smoothSolver:  Solving for gammaInt, Initial residual = 0.00115868, Final residual = 3.75336e-05, No Iterations 1
smoothSolver:  Solving for omega, Initial residual = 2.82496e-06, Final residual = 2.56585e-07, No Iterations 2
smoothSolver:  Solving for k, Initial residual = 0.00135618, Final residual = 0.000121337, No Iterations 2
ExecutionTime = 1.6343 s  ClockTime = 2 s

Time = 34s

smoothSolver:  Solving for Ux, Initial residual = 0.000490278, Final residual = 3.79252e-05, No Iterations 5
smoothSolver:  Solving for Uy, Initial residual = 0.000930144, Final residual = 6.63084e-05, No Iterations 3
GAMG:  Solving for p, Initial residual = 0.00457164, Final residual = 0.000415026, No Iterations 10
time step continuity errors : sum local = 2.90587e-05, global = -9.89737e-06, cumulative = 0.000380393
smoothSolver:  Solving for ReThetat, Initial residual = 0.00240595, Final residual = 0.000182091, No Iterations 1
smoothSolver:  Solving for gammaInt, Initial residual = 0.00141104, Final residual = 4.44883e-05, No Iterations 1
smoothSolver:  Solving for omega, Initial residual = 2.61391e-06, Final residual = 2.40003e-07, No Iterations 2
smoothSolver:  Solving for k, Initial residual = 0.00118152, Final residual = 6.05976e-05, No Iterations 3
ExecutionTime = 1.67916 s  ClockTime = 2 s

Time = 35s

smoothSolver:  Solving for Ux, Initial residual = 0.000466234, Final residual = 3.59739e-05, No Iterations 5
smoothSolver:  Solving for Uy, Initial residual = 0.000866438, Final residual = 6.35202e-05, No Iterations 3
GAMG:  Solving for p, Initial residual = 0.00372241, Final residual = 0.000347106, No Iterations 10
time step continuity errors : sum local = 2.83957e-05, global = -8.7122e-06, cumulative = 0.00037168
smoothSolver:  Solving for ReThetat, Initial residual = 0.00228975, Final residual = 0.000175244, No Iterations 1
smoothSolver:  Solving for gammaInt, Initial residual = 0.00197121, Final residual = 4.29161e-05, No Iterations 1
smoothSolver:  Solving for omega, Initial residual = 2.41601e-06, Final residual = 2.24303e-07, No Iterations 2
smoothSolver:  Solving for k, Initial residual = 0.00103056, Final residual = 6.02115e-05, No Iterations 3
ExecutionTime = 1.72381 s  ClockTime = 2 s

Time = 36s

smoothSolver:  Solving for Ux, Initial residual = 0.000446172, Final residual = 3.41873e-05, No Iterations 5
smoothSolver:  Solving for Uy, Initial residual = 0.000809305, Final residual = 6.15864e-05, No Iterations 3
GAMG:  Solving for p, Initial residual = 0.00318344, Final residual = 0.000267599, No Iterations 10
time step continuity errors : sum local = 2.47929e-05, global = -7.9375e-06, cumulative = 0.000363743
smoothSolver:  Solving for ReThetat, Initial residual = 0.00219884, Final residual = 0.000168215, No Iterations 1
smoothSolver:  Solving for gammaInt, Initial residual = 0.00208716, Final residual = 4.62772e-05, No Iterations 1
smoothSolver:  Solving for omega, Initial residual = 2.22641e-06, Final residual = 2.0876e-07, No Iterations 2
smoothSolver:  Solving for k, Initial residual = 0.000908987, Final residual = 6.06502e-05, No Iterations 3
ExecutionTime = 1.76846 s  ClockTime = 2 s

Time = 37s

smoothSolver:  Solving for Ux, Initial residual = 0.000424953, Final residual = 3.2482e-05, No Iterations 5
smoothSolver:  Solving for Uy, Initial residual = 0.000758756, Final residual = 6.02779e-05, No Iterations 3
GAMG:  Solving for p, Initial residual = 0.00271452, Final residual = 0.000227459, No Iterations 10
time step continuity errors : sum local = 2.33091e-05, global = -6.65339e-06, cumulative = 0.00035709
smoothSolver:  Solving for ReThetat, Initial residual = 0.0021113, Final residual = 0.000161138, No Iterations 1
smoothSolver:  Solving for gammaInt, Initial residual = 0.00254806, Final residual = 6.4182e-05, No Iterations 1
smoothSolver:  Solving for omega, Initial residual = 2.04304e-06, Final residual = 1.93589e-07, No Iterations 2
smoothSolver:  Solving for k, Initial residual = 0.000840808, Final residual = 6.22999e-05, No Iterations 3
ExecutionTime = 1.81428 s  ClockTime = 2 s

Time = 38s

smoothSolver:  Solving for Ux, Initial residual = 0.000406589, Final residual = 3.09134e-05, No Iterations 5
smoothSolver:  Solving for Uy, Initial residual = 0.000714642, Final residual = 5.93739e-05, No Iterations 3
GAMG:  Solving for p, Initial residual = 0.00240306, Final residual = 0.000184214, No Iterations 10
time step continuity errors : sum local = 2.04708e-05, global = -5.54147e-06, cumulative = 0.000351548
smoothSolver:  Solving for ReThetat, Initial residual = 0.00201737, Final residual = 0.000154256, No Iterations 1
smoothSolver:  Solving for gammaInt, Initial residual = 0.0044457, Final residual = 0.000156105, No Iterations 1
smoothSolver:  Solving for omega, Initial residual = 1.86935e-06, Final residual = 1.78804e-07, No Iterations 2
smoothSolver:  Solving for k, Initial residual = 0.000829188, Final residual = 6.72929e-05, No Iterations 3
ExecutionTime = 1.85741 s  ClockTime = 2 s

Time = 39s

smoothSolver:  Solving for Ux, Initial residual = 0.000387673, Final residual = 2.93829e-05, No Iterations 5
smoothSolver:  Solving for Uy, Initial residual = 0.000678842, Final residual = 5.86513e-05, No Iterations 3
GAMG:  Solving for p, Initial residual = 0.00210976, Final residual = 0.000161493, No Iterations 10
time step continuity errors : sum local = 1.9158e-05, global = -4.59892e-06, cumulative = 0.000346949
smoothSolver:  Solving for ReThetat, Initial residual = 0.00191095, Final residual = 0.000147981, No Iterations 1
smoothSolver:  Solving for gammaInt, Initial residual = 0.00693715, Final residual = 0.000177472, No Iterations 1
smoothSolver:  Solving for omega, Initial residual = 1.69889e-06, Final residual = 1.63833e-07, No Iterations 2
smoothSolver:  Solving for k, Initial residual = 0.000850694, Final residual = 7.39585e-05, No Iterations 3
ExecutionTime = 1.90013 s  ClockTime = 2 s

Time = 40s

smoothSolver:  Solving for Ux, Initial residual = 0.000370645, Final residual = 2.79546e-05, No Iterations 5
smoothSolver:  Solving for Uy, Initial residual = 0.000648432, Final residual = 5.79341e-05, No Iterations 3
GAMG:  Solving for p, Initial residual = 0.00191283, Final residual = 0.000189039, No Iterations 8
time step continuity errors : sum local = 2.36535e-05, global = -5.65348e-06, cumulative = 0.000341296
smoothSolver:  Solving for ReThetat, Initial residual = 0.00178543, Final residual = 0.000142868, No Iterations 1
smoothSolver:  Solving for gammaInt, Initial residual = 0.00632774, Final residual = 0.000153939, No Iterations 1
smoothSolver:  Solving for omega, Initial residual = 1.5327e-06, Final residual = 1.48254e-07, No Iterations 2
smoothSolver:  Solving for k, Initial residual = 0.000882437, Final residual = 8.1581e-05, No Iterations 3
ExecutionTime = 1.94373 s  ClockTime = 2 s

Time = 41s

smoothSolver:  Solving for Ux, Initial residual = 0.00035312, Final residual = 2.65353e-05, No Iterations 5
smoothSolver:  Solving for Uy, Initial residual = 0.000621887, Final residual = 5.69625e-05, No Iterations 3
GAMG:  Solving for p, Initial residual = 0.00176033, Final residual = 0.000142782, No Iterations 10
time step continuity errors : sum local = 1.85728e-05, global = -3.71718e-06, cumulative = 0.000337579
smoothSolver:  Solving for ReThetat, Initial residual = 0.00164389, Final residual = 0.000138977, No Iterations 1
smoothSolver:  Solving for gammaInt, Initial residual = 0.00560408, Final residual = 0.000109988, No Iterations 1
smoothSolver:  Solving for omega, Initial residual = 1.3784e-06, Final residual = 1.32668e-07, No Iterations 2
smoothSolver:  Solving for k, Initial residual = 0.000912185, Final residual = 8.87482e-05, No Iterations 3
ExecutionTime = 1.98894 s  ClockTime = 2 s

Time = 42s

smoothSolver:  Solving for Ux, Initial residual = 0.000337272, Final residual = 2.5211e-05, No Iterations 5
smoothSolver:  Solving for Uy, Initial residual = 0.000602564, Final residual = 5.57967e-05, No Iterations 3
GAMG:  Solving for p, Initial residual = 0.00163816, Final residual = 0.000153233, No Iterations 8
time step continuity errors : sum local = 2.06952e-05, global = -4.39071e-06, cumulative = 0.000333188
smoothSolver:  Solving for ReThetat, Initial residual = 0.00148965, Final residual = 0.000136199, No Iterations 1
smoothSolver:  Solving for gammaInt, Initial residual = 0.00483629, Final residual = 0.000106127, No Iterations 1
smoothSolver:  Solving for omega, Initial residual = 1.24004e-06, Final residual = 1.18147e-07, No Iterations 2
smoothSolver:  Solving for k, Initial residual = 0.000945984, Final residual = 4.91745e-05, No Iterations 4
ExecutionTime = 2.03228 s  ClockTime = 2 s

Time = 43s

smoothSolver:  Solving for Ux, Initial residual = 0.000320993, Final residual = 2.388e-05, No Iterations 5
smoothSolver:  Solving for Uy, Initial residual = 0.000582701, Final residual = 5.41696e-05, No Iterations 3
GAMG:  Solving for p, Initial residual = 0.0015478, Final residual = 0.000118812, No Iterations 10
time step continuity errors : sum local = 1.64148e-05, global = -3.11187e-06, cumulative = 0.000330076
smoothSolver:  Solving for ReThetat, Initial residual = 0.00132945, Final residual = 6.7387e-05, No Iterations 2
smoothSolver:  Solving for gammaInt, Initial residual = 0.00740404, Final residual = 0.000224699, No Iterations 1
smoothSolver:  Solving for omega, Initial residual = 1.11845e-06, Final residual = 1.05201e-07, No Iterations 2
smoothSolver:  Solving for k, Initial residual = 0.00102957, Final residual = 5.5843e-05, No Iterations 4
ExecutionTime = 2.07814 s  ClockTime = 2 s

Time = 44s

smoothSolver:  Solving for Ux, Initial residual = 0.000306018, Final residual = 2.26444e-05, No Iterations 5
smoothSolver:  Solving for Uy, Initial residual = 0.000567609, Final residual = 5.21889e-05, No Iterations 3
GAMG:  Solving for p, Initial residual = 0.00144326, Final residual = 0.000107098, No Iterations 10
time step continuity errors : sum local = 1.51044e-05, global = -2.6356e-06, cumulative = 0.00032744
smoothSolver:  Solving for ReThetat, Initial residual = 0.0011463, Final residual = 6.36963e-05, No Iterations 2
smoothSolver:  Solving for gammaInt, Initial residual = 0.00971734, Final residual = 0.000197542, No Iterations 1
smoothSolver:  Solving for omega, Initial residual = 1.0309e-06, Final residual = 9.52093e-08, No Iterations 2
smoothSolver:  Solving for k, Initial residual = 0.00111807, Final residual = 6.28168e-05, No Iterations 4
ExecutionTime = 2.12468 s  ClockTime = 2 s

Time = 45s

smoothSolver:  Solving for Ux, Initial residual = 0.000291683, Final residual = 2.14119e-05, No Iterations 5
smoothSolver:  Solving for Uy, Initial residual = 0.000552332, Final residual = 4.97858e-05, No Iterations 3
GAMG:  Solving for p, Initial residual = 0.00136376, Final residual = 0.000106877, No Iterations 10
time step continuity errors : sum local = 1.52543e-05, global = -2.78243e-06, cumulative = 0.000324658
smoothSolver:  Solving for ReThetat, Initial residual = 0.000975819, Final residual = 6.05224e-05, No Iterations 2
smoothSolver:  Solving for gammaInt, Initial residual = 0.0063436, Final residual = 7.70892e-05, No Iterations 1
smoothSolver:  Solving for omega, Initial residual = 9.58149e-07, Final residual = 8.69169e-08, No Iterations 2
smoothSolver:  Solving for k, Initial residual = 0.00116525, Final residual = 6.84776e-05, No Iterations 4
ExecutionTime = 2.16993 s  ClockTime = 2 s

Time = 46s

smoothSolver:  Solving for Ux, Initial residual = 0.000277569, Final residual = 2.02578e-05, No Iterations 5
smoothSolver:  Solving for Uy, Initial residual = 0.000535501, Final residual = 4.70227e-05, No Iterations 3
GAMG:  Solving for p, Initial residual = 0.00131318, Final residual = 0.000108657, No Iterations 10
time step continuity errors : sum local = 1.56298e-05, global = -2.87065e-06, cumulative = 0.000321787
smoothSolver:  Solving for ReThetat, Initial residual = 0.000831104, Final residual = 5.76882e-05, No Iterations 2
smoothSolver:  Solving for gammaInt, Initial residual = 0.00661385, Final residual = 0.000158321, No Iterations 1
smoothSolver:  Solving for omega, Initial residual = 8.79209e-07, Final residual = 7.93937e-08, No Iterations 2
smoothSolver:  Solving for k, Initial residual = 0.00124299, Final residual = 7.56645e-05, No Iterations 4
ExecutionTime = 2.21433 s  ClockTime = 2 s

Time = 47s

smoothSolver:  Solving for Ux, Initial residual = 0.000264823, Final residual = 1.91226e-05, No Iterations 5
smoothSolver:  Solving for Uy, Initial residual = 0.00052079, Final residual = 4.40489e-05, No Iterations 3
GAMG:  Solving for p, Initial residual = 0.00131726, Final residual = 0.000109611, No Iterations 10
time step continuity errors : sum local = 1.58367e-05, global = -3.02453e-06, cumulative = 0.000318763
smoothSolver:  Solving for ReThetat, Initial residual = 0.000725549, Final residual = 5.51367e-05, No Iterations 2
smoothSolver:  Solving for gammaInt, Initial residual = 0.00751117, Final residual = 0.000194628, No Iterations 1
smoothSolver:  Solving for omega, Initial residual = 8.27266e-07, Final residual = 7.43271e-08, No Iterations 2
smoothSolver:  Solving for k, Initial residual = 0.00134487, Final residual = 8.41371e-05, No Iterations 4
ExecutionTime = 2.26015 s  ClockTime = 2 s

Time = 48s

smoothSolver:  Solving for Ux, Initial residual = 0.000253344, Final residual = 1.80639e-05, No Iterations 5
smoothSolver:  Solving for Uy, Initial residual = 0.000506151, Final residual = 4.09572e-05, No Iterations 3
GAMG:  Solving for p, Initial residual = 0.00129706, Final residual = 0.000111152, No Iterations 10
time step continuity errors : sum local = 1.60996e-05, global = -2.84321e-06, cumulative = 0.00031592
smoothSolver:  Solving for ReThetat, Initial residual = 0.000668587, Final residual = 5.2824e-05, No Iterations 2
smoothSolver:  Solving for gammaInt, Initial residual = 0.0129138, Final residual = 0.000300004, No Iterations 1
smoothSolver:  Solving for omega, Initial residual = 7.99463e-07, Final residual = 7.26965e-08, No Iterations 2
smoothSolver:  Solving for k, Initial residual = 0.00149515, Final residual = 9.46789e-05, No Iterations 4
ExecutionTime = 2.30454 s  ClockTime = 2 s

Time = 49s

smoothSolver:  Solving for Ux, Initial residual = 0.000246498, Final residual = 1.70228e-05, No Iterations 5
smoothSolver:  Solving for Uy, Initial residual = 0.000492224, Final residual = 3.78761e-05, No Iterations 3
GAMG:  Solving for p, Initial residual = 0.00128445, Final residual = 0.000108337, No Iterations 10
time step continuity errors : sum local = 1.56987e-05, global = -2.60654e-06, cumulative = 0.000313313
smoothSolver:  Solving for ReThetat, Initial residual = 0.000666464, Final residual = 5.07465e-05, No Iterations 2
smoothSolver:  Solving for gammaInt, Initial residual = 0.00805142, Final residual = 0.000111082, No Iterations 1
smoothSolver:  Solving for omega, Initial residual = 8.08629e-07, Final residual = 7.59138e-08, No Iterations 2
smoothSolver:  Solving for k, Initial residual = 0.00156784, Final residual = 0.000102833, No Iterations 4
ExecutionTime = 2.34844 s  ClockTime = 2 s

Time = 50s

smoothSolver:  Solving for Ux, Initial residual = 0.000240079, Final residual = 1.60462e-05, No Iterations 5
smoothSolver:  Solving for Uy, Initial residual = 0.000477765, Final residual = 3.48585e-05, No Iterations 3
GAMG:  Solving for p, Initial residual = 0.0012461, Final residual = 0.000106419, No Iterations 10
time step continuity errors : sum local = 1.54172e-05, global = -2.2965e-06, cumulative = 0.000311017
smoothSolver:  Solving for ReThetat, Initial residual = 0.000718073, Final residual = 4.88147e-05, No Iterations 2
smoothSolver:  Solving for gammaInt, Initial residual = 0.00554467, Final residual = 9.15637e-05, No Iterations 1
smoothSolver:  Solving for omega, Initial residual = 8.12048e-07, Final residual = 7.99748e-08, No Iterations 2
smoothSolver:  Solving for k, Initial residual = 0.00161884, Final residual = 0.000109948, No Iterations 4
ExecutionTime = 2.39317 s  ClockTime = 3 s

Time = 51s

smoothSolver:  Solving for Ux, Initial residual = 0.000235004, Final residual = 1.52996e-05, No Iterations 5
smoothSolver:  Solving for Uy, Initial residual = 0.000462961, Final residual = 3.20294e-05, No Iterations 3
GAMG:  Solving for p, Initial residual = 0.00124901, Final residual = 0.000102444, No Iterations 10
time step continuity errors : sum local = 1.48262e-05, global = -2.08797e-06, cumulative = 0.000308929
smoothSolver:  Solving for ReThetat, Initial residual = 0.000790187, Final residual = 4.696e-05, No Iterations 2
smoothSolver:  Solving for gammaInt, Initial residual = 0.00868954, Final residual = 0.000257938, No Iterations 1
smoothSolver:  Solving for omega, Initial residual = 8.08374e-07, Final residual = 3.06358e-08, No Iterations 3
smoothSolver:  Solving for k, Initial residual = 0.00174246, Final residual = 0.000120349, No Iterations 4
ExecutionTime = 2.43901 s  ClockTime = 3 s

Time = 52s

smoothSolver:  Solving for Ux, Initial residual = 0.000233684, Final residual = 1.50636e-05, No Iterations 5
smoothSolver:  Solving for Uy, Initial residual = 0.000447913, Final residual = 2.94401e-05, No Iterations 3
GAMG:  Solving for p, Initial residual = 0.00125798, Final residual = 0.000101856, No Iterations 10
time step continuity errors : sum local = 1.4736e-05, global = -1.96521e-06, cumulative = 0.000306963
smoothSolver:  Solving for ReThetat, Initial residual = 0.000832458, Final residual = 4.51401e-05, No Iterations 2
smoothSolver:  Solving for gammaInt, Initial residual = 0.0137938, Final residual = 0.000302733, No Iterations 1
smoothSolver:  Solving for omega, Initial residual = 7.95483e-07, Final residual = 3.20655e-08, No Iterations 3
smoothSolver:  Solving for k, Initial residual = 0.00188743, Final residual = 0.000132239, No Iterations 4
ExecutionTime = 2.48492 s  ClockTime = 3 s

Time = 53s

smoothSolver:  Solving for Ux, Initial residual = 0.000236367, Final residual = 1.53173e-05, No Iterations 5
smoothSolver:  Solving for Uy, Initial residual = 0.000433221, Final residual = 2.71618e-05, No Iterations 3
GAMG:  Solving for p, Initial residual = 0.00124964, Final residual = 0.00010021, No Iterations 10
time step continuity errors : sum local = 1.45007e-05, global = -1.86563e-06, cumulative = 0.000305098
smoothSolver:  Solving for ReThetat, Initial residual = 0.000841303, Final residual = 4.32944e-05, No Iterations 2
smoothSolver:  Solving for gammaInt, Initial residual = 0.00784965, Final residual = 0.000121525, No Iterations 1
smoothSolver:  Solving for omega, Initial residual = 8.58483e-07, Final residual = 3.62107e-08, No Iterations 3
smoothSolver:  Solving for k, Initial residual = 0.00194284, Final residual = 0.000140905, No Iterations 4
ExecutionTime = 2.53002 s  ClockTime = 3 s

Time = 54s

smoothSolver:  Solving for Ux, Initial residual = 0.00023861, Final residual = 1.58433e-05, No Iterations 5
smoothSolver:  Solving for Uy, Initial residual = 0.000419042, Final residual = 2.52914e-05, No Iterations 3
GAMG:  Solving for p, Initial residual = 0.00122371, Final residual = 0.000100464, No Iterations 10
time step continuity errors : sum local = 1.45629e-05, global = -1.80498e-06, cumulative = 0.000303293
smoothSolver:  Solving for ReThetat, Initial residual = 0.000821598, Final residual = 4.157e-05, No Iterations 2
smoothSolver:  Solving for gammaInt, Initial residual = 0.00592361, Final residual = 0.000104692, No Iterations 1
smoothSolver:  Solving for omega, Initial residual = 8.99714e-07, Final residual = 3.96732e-08, No Iterations 3
smoothSolver:  Solving for k, Initial residual = 0.00197303, Final residual = 0.000147641, No Iterations 4
ExecutionTime = 2.57462 s  ClockTime = 3 s

Time = 55s

smoothSolver:  Solving for Ux, Initial residual = 0.000241593, Final residual = 1.64763e-05, No Iterations 5
smoothSolver:  Solving for Uy, Initial residual = 0.000405339, Final residual = 2.38789e-05, No Iterations 3
GAMG:  Solving for p, Initial residual = 0.00120365, Final residual = 9.93317e-05, No Iterations 10
time step continuity errors : sum local = 1.44445e-05, global = -1.77723e-06, cumulative = 0.000301515
smoothSolver:  Solving for ReThetat, Initial residual = 0.000778994, Final residual = 3.99604e-05, No Iterations 2
smoothSolver:  Solving for gammaInt, Initial residual = 0.0116754, Final residual = 0.00041972, No Iterations 1
smoothSolver:  Solving for omega, Initial residual = 9.40326e-07, Final residual = 4.21724e-08, No Iterations 3
smoothSolver:  Solving for k, Initial residual = 0.00215671, Final residual = 0.000162366, No Iterations 4
ExecutionTime = 2.6221 s  ClockTime = 3 s

Time = 56s

smoothSolver:  Solving for Ux, Initial residual = 0.000249612, Final residual = 1.74016e-05, No Iterations 5
smoothSolver:  Solving for Uy, Initial residual = 0.000392045, Final residual = 2.27944e-05, No Iterations 3
GAMG:  Solving for p, Initial residual = 0.00119377, Final residual = 9.88353e-05, No Iterations 10
time step continuity errors : sum local = 1.44471e-05, global = -1.70228e-06, cumulative = 0.000299813
smoothSolver:  Solving for ReThetat, Initial residual = 0.000719281, Final residual = 3.84675e-05, No Iterations 2
smoothSolver:  Solving for gammaInt, Initial residual = 0.0113479, Final residual = 0.000212581, No Iterations 1
smoothSolver:  Solving for omega, Initial residual = 1.01281e-06, Final residual = 4.56773e-08, No Iterations 3
smoothSolver:  Solving for k, Initial residual = 0.00224263, Final residual = 0.000173125, No Iterations 4
ExecutionTime = 2.66841 s  ClockTime = 3 s

Time = 57s

smoothSolver:  Solving for Ux, Initial residual = 0.00025643, Final residual = 1.83116e-05, No Iterations 5
smoothSolver:  Solving for Uy, Initial residual = 0.000379339, Final residual = 2.1986e-05, No Iterations 3
GAMG:  Solving for p, Initial residual = 0.00118373, Final residual = 9.83182e-05, No Iterations 10
time step continuity errors : sum local = 1.44753e-05, global = -1.67606e-06, cumulative = 0.000298137
smoothSolver:  Solving for ReThetat, Initial residual = 0.000648649, Final residual = 3.70737e-05, No Iterations 2
smoothSolver:  Solving for gammaInt, Initial residual = 0.00670588, Final residual = 0.000118437, No Iterations 1
smoothSolver:  Solving for omega, Initial residual = 1.0659e-06, Final residual = 4.88286e-08, No Iterations 3
smoothSolver:  Solving for k, Initial residual = 0.00226584, Final residual = 0.000179994, No Iterations 4
ExecutionTime = 2.71647 s  ClockTime = 3 s

Time = 58s

smoothSolver:  Solving for Ux, Initial residual = 0.000260086, Final residual = 1.90096e-05, No Iterations 5
smoothSolver:  Solving for Uy, Initial residual = 0.00036769, Final residual = 2.1394e-05, No Iterations 3
GAMG:  Solving for p, Initial residual = 0.00115509, Final residual = 9.90902e-05, No Iterations 10
time step continuity errors : sum local = 1.47299e-05, global = -1.67568e-06, cumulative = 0.000296461
smoothSolver:  Solving for ReThetat, Initial residual = 0.000572554, Final residual = 3.58426e-05, No Iterations 2
smoothSolver:  Solving for gammaInt, Initial residual = 0.00529875, Final residual = 0.000110488, No Iterations 1
smoothSolver:  Solving for omega, Initial residual = 1.09421e-06, Final residual = 5.03579e-08, No Iterations 3
smoothSolver:  Solving for k, Initial residual = 0.0022736, Final residual = 0.000184824, No Iterations 4
ExecutionTime = 2.76196 s  ClockTime = 3 s

Time = 59s

smoothSolver:  Solving for Ux, Initial residual = 0.000261962, Final residual = 1.95642e-05, No Iterations 5
smoothSolver:  Solving for Uy, Initial residual = 0.000356734, Final residual = 2.09541e-05, No Iterations 3
GAMG:  Solving for p, Initial residual = 0.00113091, Final residual = 9.94239e-05, No Iterations 10
time step continuity errors : sum local = 1.4952e-05, global = -1.68945e-06, cumulative = 0.000294772
smoothSolver:  Solving for ReThetat, Initial residual = 0.000496739, Final residual = 3.47276e-05, No Iterations 2
smoothSolver:  Solving for gammaInt, Initial residual = 0.0131487, Final residual = 0.000480903, No Iterations 1
smoothSolver:  Solving for omega, Initial residual = 1.10087e-06, Final residual = 5.10516e-08, No Iterations 3
smoothSolver:  Solving for k, Initial residual = 0.00244465, Final residual = 0.000199444, No Iterations 4
ExecutionTime = 2.80653 s  ClockTime = 3 s

Time = 60s

smoothSolver:  Solving for Ux, Initial residual = 0.000264621, Final residual = 2.02836e-05, No Iterations 5
smoothSolver:  Solving for Uy, Initial residual = 0.000346509, Final residual = 2.05978e-05, No Iterations 3
GAMG:  Solving for p, Initial residual = 0.00108838, Final residual = 9.95705e-05, No Iterations 10
time step continuity errors : sum local = 1.51817e-05, global = -1.71156e-06, cumulative = 0.00029306
smoothSolver:  Solving for ReThetat, Initial residual = 0.000423974, Final residual = 3.37254e-05, No Iterations 2
smoothSolver:  Solving for gammaInt, Initial residual = 0.00892546, Final residual = 0.000173941, No Iterations 1
smoothSolver:  Solving for omega, Initial residual = 1.12794e-06, Final residual = 5.28364e-08, No Iterations 3
smoothSolver:  Solving for k, Initial residual = 0.00247213, Final residual = 0.000206062, No Iterations 4
ExecutionTime = 2.85373 s  ClockTime = 3 s

Time = 61s

smoothSolver:  Solving for Ux, Initial residual = 0.00026619, Final residual = 2.08593e-05, No Iterations 5
smoothSolver:  Solving for Uy, Initial residual = 0.000336597, Final residual = 2.02689e-05, No Iterations 3
GAMG:  Solving for p, Initial residual = 0.00104754, Final residual = 9.87653e-05, No Iterations 10
time step continuity errors : sum local = 1.52975e-05, global = -1.76546e-06, cumulative = 0.000291295
smoothSolver:  Solving for ReThetat, Initial residual = 0.000356871, Final residual = 3.28215e-05, No Iterations 2
smoothSolver:  Solving for gammaInt, Initial residual = 0.00613892, Final residual = 0.00013479, No Iterations 1
smoothSolver:  Solving for omega, Initial residual = 1.14358e-06, Final residual = 5.36756e-08, No Iterations 3
smoothSolver:  Solving for k, Initial residual = 0.0024735, Final residual = 0.000210382, No Iterations 4
ExecutionTime = 2.8993 s  ClockTime = 3 s

Time = 62s

smoothSolver:  Solving for Ux, Initial residual = 0.000264481, Final residual = 2.12568e-05, No Iterations 5
smoothSolver:  Solving for Uy, Initial residual = 0.000327491, Final residual = 1.9918e-05, No Iterations 3
GAMG:  Solving for p, Initial residual = 0.00101893, Final residual = 9.73436e-05, No Iterations 10
time step continuity errors : sum local = 1.53444e-05, global = -1.75829e-06, cumulative = 0.000289537
smoothSolver:  Solving for ReThetat, Initial residual = 0.000297109, Final residual = 1.94618e-05, No Iterations 3
smoothSolver:  Solving for gammaInt, Initial residual = 0.00477296, Final residual = 0.000116832, No Iterations 1
smoothSolver:  Solving for omega, Initial residual = 1.13549e-06, Final residual = 5.38703e-08, No Iterations 3
smoothSolver:  Solving for k, Initial residual = 0.00246045, Final residual = 0.000212912, No Iterations 4
ExecutionTime = 2.94572 s  ClockTime = 3 s

Time = 63s

smoothSolver:  Solving for Ux, Initial residual = 0.000263712, Final residual = 2.15684e-05, No Iterations 5
smoothSolver:  Solving for Uy, Initial residual = 0.000318854, Final residual = 1.95199e-05, No Iterations 3
GAMG:  Solving for p, Initial residual = 0.000983815, Final residual = 9.51889e-05, No Iterations 10
time step continuity errors : sum local = 1.52934e-05, global = -1.72055e-06, cumulative = 0.000287816
smoothSolver:  Solving for ReThetat, Initial residual = 0.000244427, Final residual = 1.88993e-05, No Iterations 3
smoothSolver:  Solving for gammaInt, Initial residual = 0.00823763, Final residual = 0.000369642, No Iterations 1
smoothSolver:  Solving for omega, Initial residual = 1.12151e-06, Final residual = 5.38041e-08, No Iterations 3
smoothSolver:  Solving for k, Initial residual = 0.00254077, Final residual = 0.000221677, No Iterations 4
ExecutionTime = 2.99205 s  ClockTime = 3 s

Time = 64s

smoothSolver:  Solving for Ux, Initial residual = 0.000265753, Final residual = 2.20031e-05, No Iterations 5
smoothSolver:  Solving for Uy, Initial residual = 0.000311122, Final residual = 1.904e-05, No Iterations 3
GAMG:  Solving for p, Initial residual = 0.000942085, Final residual = 9.18113e-05, No Iterations 10
time step continuity errors : sum local = 1.50547e-05, global = -1.64589e-06, cumulative = 0.00028617
smoothSolver:  Solving for ReThetat, Initial residual = 0.000201194, Final residual = 1.83999e-05, No Iterations 3
smoothSolver:  Solving for gammaInt, Initial residual = 0.00956911, Final residual = 0.000263849, No Iterations 1
smoothSolver:  Solving for omega, Initial residual = 1.12261e-06, Final residual = 5.44019e-08, No Iterations 3
smoothSolver:  Solving for k, Initial residual = 0.00257499, Final residual = 0.000227398, No Iterations 4
ExecutionTime = 3.03881 s  ClockTime = 3 s

Time = 65s

smoothSolver:  Solving for Ux, Initial residual = 0.000267236, Final residual = 2.24108e-05, No Iterations 5
smoothSolver:  Solving for Uy, Initial residual = 0.00030399, Final residual = 1.84421e-05, No Iterations 3
GAMG:  Solving for p, Initial residual = 0.000895339, Final residual = 8.76643e-05, No Iterations 10
time step continuity errors : sum local = 1.4686e-05, global = -1.55178e-06, cumulative = 0.000284618
smoothSolver:  Solving for ReThetat, Initial residual = 0.000166813, Final residual = 1.14102e-05, No Iterations 4
smoothSolver:  Solving for gammaInt, Initial residual = 0.00587296, Final residual = 0.00014799, No Iterations 1
smoothSolver:  Solving for omega, Initial residual = 1.12051e-06, Final residual = 5.49695e-08, No Iterations 3
smoothSolver:  Solving for k, Initial residual = 0.00256647, Final residual = 0.000230416, No Iterations 4
ExecutionTime = 3.08548 s  ClockTime = 3 s

Time = 66s

smoothSolver:  Solving for Ux, Initial residual = 0.00026863, Final residual = 2.27127e-05, No Iterations 5
smoothSolver:  Solving for Uy, Initial residual = 0.000297328, Final residual = 1.77264e-05, No Iterations 3
GAMG:  Solving for p, Initial residual = 0.000865429, Final residual = 8.2526e-05, No Iterations 10
time step continuity errors : sum local = 1.41368e-05, global = -1.402e-06, cumulative = 0.000283216
smoothSolver:  Solving for ReThetat, Initial residual = 0.000140433, Final residual = 1.11129e-05, No Iterations 4
smoothSolver:  Solving for gammaInt, Initial residual = 0.00485794, Final residual = 0.000138656, No Iterations 1
bounding gammaInt, min: -0.00163193 max: 1.00056 average: 0.828039
smoothSolver:  Solving for omega, Initial residual = 1.11147e-06, Final residual = 5.50167e-08, No Iterations 3
smoothSolver:  Solving for k, Initial residual = 0.00255245, Final residual = 0.000232488, No Iterations 4
ExecutionTime = 3.13129 s  ClockTime = 3 s

Time = 67s

smoothSolver:  Solving for Ux, Initial residual = 0.000269417, Final residual = 2.29499e-05, No Iterations 5
smoothSolver:  Solving for Uy, Initial residual = 0.000290682, Final residual = 1.69017e-05, No Iterations 3
GAMG:  Solving for p, Initial residual = 0.000834143, Final residual = 7.69864e-05, No Iterations 10
time step continuity errors : sum local = 1.34922e-05, global = -1.30729e-06, cumulative = 0.000281909
smoothSolver:  Solving for ReThetat, Initial residual = 0.00012407, Final residual = 1.08494e-05, No Iterations 4
smoothSolver:  Solving for gammaInt, Initial residual = 0.00345533, Final residual = 8.96034e-05, No Iterations 1
smoothSolver:  Solving for omega, Initial residual = 1.09559e-06, Final residual = 5.51711e-08, No Iterations 3
smoothSolver:  Solving for k, Initial residual = 0.00251358, Final residual = 0.000232517, No Iterations 4
ExecutionTime = 3.17784 s  ClockTime = 3 s

Time = 68s

smoothSolver:  Solving for Ux, Initial residual = 0.000270134, Final residual = 2.31238e-05, No Iterations 5
smoothSolver:  Solving for Uy, Initial residual = 0.000284108, Final residual = 1.60176e-05, No Iterations 3
GAMG:  Solving for p, Initial residual = 0.000800365, Final residual = 7.17238e-05, No Iterations 10
time step continuity errors : sum local = 1.28633e-05, global = -1.23272e-06, cumulative = 0.000280676
smoothSolver:  Solving for ReThetat, Initial residual = 0.000121808, Final residual = 1.06109e-05, No Iterations 4
smoothSolver:  Solving for gammaInt, Initial residual = 0.00527919, Final residual = 0.00028703, No Iterations 1
bounding gammaInt, min: -0.00455518 max: 1.0006 average: 0.829612
smoothSolver:  Solving for omega, Initial residual = 1.07353e-06, Final residual = 5.51345e-08, No Iterations 3
smoothSolver:  Solving for k, Initial residual = 0.00253426, Final residual = 0.000236674, No Iterations 4
ExecutionTime = 3.22557 s  ClockTime = 3 s

Time = 69s

smoothSolver:  Solving for Ux, Initial residual = 0.000271063, Final residual = 2.33374e-05, No Iterations 5
smoothSolver:  Solving for Uy, Initial residual = 0.000277206, Final residual = 1.51025e-05, No Iterations 3
GAMG:  Solving for p, Initial residual = 0.000773396, Final residual = 6.87881e-05, No Iterations 10
time step continuity errors : sum local = 1.26256e-05, global = -1.19184e-06, cumulative = 0.000279485
smoothSolver:  Solving for ReThetat, Initial residual = 0.000127708, Final residual = 1.03935e-05, No Iterations 4
smoothSolver:  Solving for gammaInt, Initial residual = 0.0086344, Final residual = 0.00030981, No Iterations 1
smoothSolver:  Solving for omega, Initial residual = 1.06277e-06, Final residual = 5.52884e-08, No Iterations 3
smoothSolver:  Solving for k, Initial residual = 0.00255898, Final residual = 0.000240794, No Iterations 4
ExecutionTime = 3.27132 s  ClockTime = 3 s

Time = 70s

smoothSolver:  Solving for Ux, Initial residual = 0.000272799, Final residual = 2.35939e-05, No Iterations 5
smoothSolver:  Solving for Uy, Initial residual = 0.000270515, Final residual = 2.68956e-05, No Iterations 2
GAMG:  Solving for p, Initial residual = 0.000790501, Final residual = 6.46115e-05, No Iterations 10
time step continuity errors : sum local = 1.21369e-05, global = -1.11498e-06, cumulative = 0.00027837
smoothSolver:  Solving for ReThetat, Initial residual = 0.000133314, Final residual = 1.01975e-05, No Iterations 4
smoothSolver:  Solving for gammaInt, Initial residual = 0.00546822, Final residual = 0.000165952, No Iterations 1
bounding gammaInt, min: -0.00658578 max: 1.00059 average: 0.831419
smoothSolver:  Solving for omega, Initial residual = 1.05803e-06, Final residual = 5.58041e-08, No Iterations 3
smoothSolver:  Solving for k, Initial residual = 0.0025429, Final residual = 0.000242358, No Iterations 4
ExecutionTime = 3.31784 s  ClockTime = 3 s

Time = 71s

smoothSolver:  Solving for Ux, Initial residual = 0.000273853, Final residual = 2.38091e-05, No Iterations 5
smoothSolver:  Solving for Uy, Initial residual = 0.000266109, Final residual = 2.6062e-05, No Iterations 2
GAMG:  Solving for p, Initial residual = 0.000720212, Final residual = 6.4059e-05, No Iterations 10
time step continuity errors : sum local = 1.23063e-05, global = -1.14528e-06, cumulative = 0.000277224
smoothSolver:  Solving for ReThetat, Initial residual = 0.000137904, Final residual = 1.00222e-05, No Iterations 4
smoothSolver:  Solving for gammaInt, Initial residual = 0.004679, Final residual = 0.000160516, No Iterations 1
smoothSolver:  Solving for omega, Initial residual = 1.05324e-06, Final residual = 5.63425e-08, No Iterations 3
smoothSolver:  Solving for k, Initial residual = 0.00252769, Final residual = 0.000243643, No Iterations 4
ExecutionTime = 3.36405 s  ClockTime = 3 s

Time = 72s

smoothSolver:  Solving for Ux, Initial residual = 0.00027463, Final residual = 2.39893e-05, No Iterations 5
smoothSolver:  Solving for Uy, Initial residual = 0.000260547, Final residual = 2.49714e-05, No Iterations 2
GAMG:  Solving for p, Initial residual = 0.000695199, Final residual = 6.28384e-05, No Iterations 10
time step continuity errors : sum local = 1.23419e-05, global = -1.16257e-06, cumulative = 0.000276062
smoothSolver:  Solving for ReThetat, Initial residual = 0.000141482, Final residual = 9.86813e-06, No Iterations 4
smoothSolver:  Solving for gammaInt, Initial residual = 0.00283696, Final residual = 8.11776e-05, No Iterations 1
smoothSolver:  Solving for omega, Initial residual = 1.04867e-06, Final residual = 5.68149e-08, No Iterations 3
smoothSolver:  Solving for k, Initial residual = 0.0024817, Final residual = 0.000242458, No Iterations 4
ExecutionTime = 3.41 s  ClockTime = 4 s

Time = 73s

smoothSolver:  Solving for Ux, Initial residual = 0.00027466, Final residual = 2.40953e-05, No Iterations 5
smoothSolver:  Solving for Uy, Initial residual = 0.000254819, Final residual = 2.38411e-05, No Iterations 2
GAMG:  Solving for p, Initial residual = 0.000670774, Final residual = 6.11577e-05, No Iterations 10
time step continuity errors : sum local = 1.22768e-05, global = -1.17605e-06, cumulative = 0.000274886
smoothSolver:  Solving for ReThetat, Initial residual = 0.0001444, Final residual = 9.73233e-06, No Iterations 4
smoothSolver:  Solving for gammaInt, Initial residual = 0.0017083, Final residual = 5.36016e-05, No Iterations 1
smoothSolver:  Solving for omega, Initial residual = 1.03826e-06, Final residual = 5.70249e-08, No Iterations 3
smoothSolver:  Solving for k, Initial residual = 0.0024235, Final residual = 0.000240017, No Iterations 4
ExecutionTime = 3.45607 s  ClockTime = 4 s

Time = 74s

smoothSolver:  Solving for Ux, Initial residual = 0.00027417, Final residual = 2.41298e-05, No Iterations 5
smoothSolver:  Solving for Uy, Initial residual = 0.00024915, Final residual = 2.27542e-05, No Iterations 2
GAMG:  Solving for p, Initial residual = 0.000653217, Final residual = 5.85309e-05, No Iterations 10
time step continuity errors : sum local = 1.2003e-05, global = -1.16394e-06, cumulative = 0.000273722
smoothSolver:  Solving for ReThetat, Initial residual = 0.000146332, Final residual = 9.61345e-06, No Iterations 4
smoothSolver:  Solving for gammaInt, Initial residual = 0.00483061, Final residual = 0.000308541, No Iterations 1
smoothSolver:  Solving for omega, Initial residual = 1.02188e-06, Final residual = 5.6938e-08, No Iterations 3
smoothSolver:  Solving for k, Initial residual = 0.00243081, Final residual = 0.000242246, No Iterations 4
ExecutionTime = 3.50317 s  ClockTime = 4 s

Time = 75s

smoothSolver:  Solving for Ux, Initial residual = 0.000273682, Final residual = 2.41947e-05, No Iterations 5
smoothSolver:  Solving for Uy, Initial residual = 0.000243673, Final residual = 2.17261e-05, No Iterations 2
GAMG:  Solving for p, Initial residual = 0.000635994, Final residual = 5.60044e-05, No Iterations 10
time step continuity errors : sum local = 1.17255e-05, global = -1.14637e-06, cumulative = 0.000272575
smoothSolver:  Solving for ReThetat, Initial residual = 0.000147914, Final residual = 1.46731e-05, No Iterations 3
smoothSolver:  Solving for gammaInt, Initial residual = 0.00728731, Final residual = 0.000318717, No Iterations 1
smoothSolver:  Solving for omega, Initial residual = 1.01174e-06, Final residual = 5.70339e-08, No Iterations 3
smoothSolver:  Solving for k, Initial residual = 0.00243952, Final residual = 0.00013887, No Iterations 5
ExecutionTime = 3.5499 s  ClockTime = 4 s

Time = 76s

smoothSolver:  Solving for Ux, Initial residual = 0.000274007, Final residual = 2.43378e-05, No Iterations 5
smoothSolver:  Solving for Uy, Initial residual = 0.000238499, Final residual = 2.08354e-05, No Iterations 2
GAMG:  Solving for p, Initial residual = 0.00062287, Final residual = 5.39851e-05, No Iterations 10
time step continuity errors : sum local = 1.15327e-05, global = -1.12183e-06, cumulative = 0.000271454
smoothSolver:  Solving for ReThetat, Initial residual = 0.000149825, Final residual = 1.46248e-05, No Iterations 3
smoothSolver:  Solving for gammaInt, Initial residual = 0.00537211, Final residual = 0.000207634, No Iterations 1
smoothSolver:  Solving for omega, Initial residual = 1.01167e-06, Final residual = 5.73729e-08, No Iterations 3
smoothSolver:  Solving for k, Initial residual = 0.00242264, Final residual = 0.000139313, No Iterations 5
ExecutionTime = 3.59673 s  ClockTime = 4 s

Time = 77s

smoothSolver:  Solving for Ux, Initial residual = 0.000274014, Final residual = 2.44406e-05, No Iterations 5
smoothSolver:  Solving for Uy, Initial residual = 0.000234323, Final residual = 2.01001e-05, No Iterations 2
GAMG:  Solving for p, Initial residual = 0.000606275, Final residual = 5.26169e-05, No Iterations 10
time step continuity errors : sum local = 1.14643e-05, global = -1.1074e-06, cumulative = 0.000270346
smoothSolver:  Solving for ReThetat, Initial residual = 0.000151512, Final residual = 1.45871e-05, No Iterations 3
smoothSolver:  Solving for gammaInt, Initial residual = 0.00433912, Final residual = 0.00016262, No Iterations 1
smoothSolver:  Solving for omega, Initial residual = 1.00879e-06, Final residual = 5.7848e-08, No Iterations 3
smoothSolver:  Solving for k, Initial residual = 0.00239117, Final residual = 0.000138951, No Iterations 5
ExecutionTime = 3.64621 s  ClockTime = 4 s

Time = 78s

smoothSolver:  Solving for Ux, Initial residual = 0.000273559, Final residual = 2.44952e-05, No Iterations 5
smoothSolver:  Solving for Uy, Initial residual = 0.000230648, Final residual = 1.94706e-05, No Iterations 2
GAMG:  Solving for p, Initial residual = 0.00058882, Final residual = 5.1262e-05, No Iterations 10
time step continuity errors : sum local = 1.13851e-05, global = -1.09316e-06, cumulative = 0.000269253
smoothSolver:  Solving for ReThetat, Initial residual = 0.000152855, Final residual = 1.45585e-05, No Iterations 3
smoothSolver:  Solving for gammaInt, Initial residual = 0.0020989, Final residual = 7.08445e-05, No Iterations 1
smoothSolver:  Solving for omega, Initial residual = 1.00131e-06, Final residual = 5.82365e-08, No Iterations 3
smoothSolver:  Solving for k, Initial residual = 0.00232995, Final residual = 0.00013724, No Iterations 5
ExecutionTime = 3.69259 s  ClockTime = 4 s

Time = 79s

smoothSolver:  Solving for Ux, Initial residual = 0.000272445, Final residual = 2.44704e-05, No Iterations 5
smoothSolver:  Solving for Uy, Initial residual = 0.000227451, Final residual = 1.8918e-05, No Iterations 2
GAMG:  Solving for p, Initial residual = 0.000573475, Final residual = 4.99608e-05, No Iterations 10
time step continuity errors : sum local = 1.13038e-05, global = -1.0875e-06, cumulative = 0.000268166
smoothSolver:  Solving for ReThetat, Initial residual = 0.000153864, Final residual = 1.45352e-05, No Iterations 3
smoothSolver:  Solving for gammaInt, Initial residual = 0.00130048, Final residual = 5.11987e-05, No Iterations 1
smoothSolver:  Solving for omega, Initial residual = 9.86913e-07, Final residual = 5.82941e-08, No Iterations 3
smoothSolver:  Solving for k, Initial residual = 0.00225928, Final residual = 0.000134779, No Iterations 5
ExecutionTime = 3.73978 s  ClockTime = 4 s

Time = 80s

smoothSolver:  Solving for Ux, Initial residual = 0.000270657, Final residual = 2.43747e-05, No Iterations 5
smoothSolver:  Solving for Uy, Initial residual = 0.000224188, Final residual = 1.84322e-05, No Iterations 2
GAMG:  Solving for p, Initial residual = 0.000561028, Final residual = 4.80745e-05, No Iterations 10
time step continuity errors : sum local = 1.10738e-05, global = -1.07125e-06, cumulative = 0.000267094
smoothSolver:  Solving for ReThetat, Initial residual = 0.00015472, Final residual = 1.45144e-05, No Iterations 3
smoothSolver:  Solving for gammaInt, Initial residual = 0.000882195, Final residual = 4.25032e-05, No Iterations 1
smoothSolver:  Solving for omega, Initial residual = 9.68145e-07, Final residual = 5.80854e-08, No Iterations 3
smoothSolver:  Solving for k, Initial residual = 0.00218364, Final residual = 0.000131815, No Iterations 5
ExecutionTime = 3.78455 s  ClockTime = 4 s

Time = 81s

smoothSolver:  Solving for Ux, Initial residual = 0.000268115, Final residual = 2.42109e-05, No Iterations 5
smoothSolver:  Solving for Uy, Initial residual = 0.00022102, Final residual = 1.80025e-05, No Iterations 2
GAMG:  Solving for p, Initial residual = 0.000547677, Final residual = 4.62244e-05, No Iterations 10
time step continuity errors : sum local = 1.08333e-05, global = -1.05509e-06, cumulative = 0.000266039
smoothSolver:  Solving for ReThetat, Initial residual = 0.000155146, Final residual = 1.44947e-05, No Iterations 3
smoothSolver:  Solving for gammaInt, Initial residual = 0.0044074, Final residual = 0.000334162, No Iterations 1
smoothSolver:  Solving for omega, Initial residual = 9.4485e-07, Final residual = 5.76417e-08, No Iterations 3
smoothSolver:  Solving for k, Initial residual = 0.00216663, Final residual = 0.000131379, No Iterations 5
ExecutionTime = 3.82988 s  ClockTime = 4 s

Time = 82s

smoothSolver:  Solving for Ux, Initial residual = 0.000265379, Final residual = 2.40694e-05, No Iterations 5
smoothSolver:  Solving for Uy, Initial residual = 0.000217814, Final residual = 1.76131e-05, No Iterations 2
GAMG:  Solving for p, Initial residual = 0.000537698, Final residual = 4.46356e-05, No Iterations 10
time step continuity errors : sum local = 1.06368e-05, global = -1.03064e-06, cumulative = 0.000265009
smoothSolver:  Solving for ReThetat, Initial residual = 0.00015507, Final residual = 1.44764e-05, No Iterations 3
smoothSolver:  Solving for gammaInt, Initial residual = 0.00662771, Final residual = 0.000369508, No Iterations 1
smoothSolver:  Solving for omega, Initial residual = 9.27824e-07, Final residual = 5.72964e-08, No Iterations 3
smoothSolver:  Solving for k, Initial residual = 0.00215946, Final residual = 0.000131436, No Iterations 5
ExecutionTime = 3.87647 s  ClockTime = 4 s

Time = 83s

smoothSolver:  Solving for Ux, Initial residual = 0.000262727, Final residual = 2.39459e-05, No Iterations 5
smoothSolver:  Solving for Uy, Initial residual = 0.000214689, Final residual = 1.72678e-05, No Iterations 2
GAMG:  Solving for p, Initial residual = 0.000528738, Final residual = 4.33363e-05, No Iterations 10
time step continuity errors : sum local = 1.04946e-05, global = -1.00548e-06, cumulative = 0.000264003
smoothSolver:  Solving for ReThetat, Initial residual = 0.000155063, Final residual = 1.44594e-05, No Iterations 3
smoothSolver:  Solving for gammaInt, Initial residual = 0.00580507, Final residual = 0.0002705, No Iterations 1
smoothSolver:  Solving for omega, Initial residual = 9.17406e-07, Final residual = 5.70813e-08, No Iterations 3
smoothSolver:  Solving for k, Initial residual = 0.0021374, Final residual = 0.000130706, No Iterations 5
ExecutionTime = 3.92161 s  ClockTime = 4 s

Time = 84s

smoothSolver:  Solving for Ux, Initial residual = 0.000260251, Final residual = 2.38104e-05, No Iterations 5
smoothSolver:  Solving for Uy, Initial residual = 0.000211615, Final residual = 1.69293e-05, No Iterations 2
GAMG:  Solving for p, Initial residual = 0.000517224, Final residual = 4.19713e-05, No Iterations 10
time step continuity errors : sum local = 1.0323e-05, global = -9.77597e-07, cumulative = 0.000263026
smoothSolver:  Solving for ReThetat, Initial residual = 0.000154779, Final residual = 1.44405e-05, No Iterations 3
smoothSolver:  Solving for gammaInt, Initial residual = 0.00298606, Final residual = 0.000119896, No Iterations 1
smoothSolver:  Solving for omega, Initial residual = 9.08934e-07, Final residual = 5.68845e-08, No Iterations 3
smoothSolver:  Solving for k, Initial residual = 0.00207881, Final residual = 0.000128175, No Iterations 5
ExecutionTime = 3.96704 s  ClockTime = 4 s

Time = 85s

smoothSolver:  Solving for Ux, Initial residual = 0.000257465, Final residual = 2.36233e-05, No Iterations 5
smoothSolver:  Solving for Uy, Initial residual = 0.000208735, Final residual = 1.6591e-05, No Iterations 2
GAMG:  Solving for p, Initial residual = 0.000508375, Final residual = 4.04635e-05, No Iterations 10
time step continuity errors : sum local = 1.01024e-05, global = -9.46429e-07, cumulative = 0.000262079
smoothSolver:  Solving for ReThetat, Initial residual = 0.000154221, Final residual = 1.44159e-05, No Iterations 3
smoothSolver:  Solving for gammaInt, Initial residual = 0.00143273, Final residual = 6.42808e-05, No Iterations 1
smoothSolver:  Solving for omega, Initial residual = 8.95329e-07, Final residual = 5.64953e-08, No Iterations 3
smoothSolver:  Solving for k, Initial residual = 0.00200497, Final residual = 0.000124706, No Iterations 5
ExecutionTime = 4.01291 s  ClockTime = 4 s

[...]
smoothSolver:  Solving for gammaInt, Initial residual = 6.42701e-06, Final residual = 2.2531e-07, No Iterations 1
smoothSolver:  Solving for omega, Initial residual = 1.15692e-08, Final residual = 4.88625e-09, No Iterations 1
smoothSolver:  Solving for k, Initial residual = 7.23263e-06, Final residual = 4.9986e-07, No Iterations 5
ExecutionTime = 11.3979 s  ClockTime = 12 s

Time = 248s

smoothSolver:  Solving for Ux, Initial residual = 1.44397e-06, Final residual = 9.80695e-08, No Iterations 6
smoothSolver:  Solving for Uy, Initial residual = 1.88276e-06, Final residual = 1.77315e-07, No Iterations 2
GAMG:  Solving for p, Initial residual = 7.78401e-06, Final residual = 6.35612e-07, No Iterations 8
time step continuity errors : sum local = 2.49032e-07, global = -3.44188e-08, cumulative = 0.000158127
smoothSolver:  Solving for ReThetat, Initial residual = 1.5055e-05, Final residual = 1.27024e-06, No Iterations 6
smoothSolver:  Solving for gammaInt, Initial residual = 6.79029e-06, Final residual = 2.29474e-07, No Iterations 1
smoothSolver:  Solving for omega, Initial residual = 6.99611e-09, Final residual = 6.99611e-09, No Iterations 0
smoothSolver:  Solving for k, Initial residual = 7.09078e-06, Final residual = 4.88931e-07, No Iterations 5
ExecutionTime = 11.4413 s  ClockTime = 12 s

Time = 249s

smoothSolver:  Solving for Ux, Initial residual = 1.3907e-06, Final residual = 9.46097e-08, No Iterations 6
smoothSolver:  Solving for Uy, Initial residual = 1.85863e-06, Final residual = 1.76139e-07, No Iterations 2
GAMG:  Solving for p, Initial residual = 7.5868e-06, Final residual = 8.87798e-07, No Iterations 6
time step continuity errors : sum local = 3.47855e-07, global = -5.84762e-08, cumulative = 0.000158069
smoothSolver:  Solving for ReThetat, Initial residual = 1.4769e-05, Final residual = 1.26067e-06, No Iterations 6
smoothSolver:  Solving for gammaInt, Initial residual = 6.50085e-06, Final residual = 2.25617e-07, No Iterations 1
smoothSolver:  Solving for omega, Initial residual = 8.0884e-09, Final residual = 8.0884e-09, No Iterations 0
smoothSolver:  Solving for k, Initial residual = 6.96855e-06, Final residual = 4.76072e-07, No Iterations 5
ExecutionTime = 11.4836 s  ClockTime = 12 s

Time = 250s

smoothSolver:  Solving for Ux, Initial residual = 1.34216e-06, Final residual = 9.13145e-08, No Iterations 6
smoothSolver:  Solving for Uy, Initial residual = 1.75427e-06, Final residual = 1.67982e-07, No Iterations 2
GAMG:  Solving for p, Initial residual = 7.525e-06, Final residual = 9.45597e-07, No Iterations 6
time step continuity errors : sum local = 3.70516e-07, global = -6.17594e-08, cumulative = 0.000158007
smoothSolver:  Solving for ReThetat, Initial residual = 1.47188e-05, Final residual = 1.25154e-06, No Iterations 6
smoothSolver:  Solving for gammaInt, Initial residual = 6.37074e-06, Final residual = 2.23748e-07, No Iterations 1
smoothSolver:  Solving for omega, Initial residual = 9.48647e-09, Final residual = 9.48647e-09, No Iterations 0
smoothSolver:  Solving for k, Initial residual = 6.88044e-06, Final residual = 4.654e-07, No Iterations 5
ExecutionTime = 11.5255 s  ClockTime = 12 s

Time = 251s

smoothSolver:  Solving for Ux, Initial residual = 1.29535e-06, Final residual = 8.80353e-08, No Iterations 6
smoothSolver:  Solving for Uy, Initial residual = 1.70902e-06, Final residual = 1.63199e-07, No Iterations 2
GAMG:  Solving for p, Initial residual = 7.46487e-06, Final residual = 9.47356e-07, No Iterations 6
time step continuity errors : sum local = 3.7122e-07, global = -6.14626e-08, cumulative = 0.000157945
smoothSolver:  Solving for ReThetat, Initial residual = 1.47086e-05, Final residual = 1.2428e-06, No Iterations 6
smoothSolver:  Solving for gammaInt, Initial residual = 6.2712e-06, Final residual = 2.22029e-07, No Iterations 1
smoothSolver:  Solving for omega, Initial residual = 1.08908e-08, Final residual = 4.72694e-09, No Iterations 1
smoothSolver:  Solving for k, Initial residual = 6.34839e-06, Final residual = 4.39238e-07, No Iterations 5
ExecutionTime = 11.5661 s  ClockTime = 12 s

Time = 252s

smoothSolver:  Solving for Ux, Initial residual = 1.27392e-06, Final residual = 8.6392e-08, No Iterations 6
smoothSolver:  Solving for Uy, Initial residual = 1.66432e-06, Final residual = 1.57421e-07, No Iterations 2
GAMG:  Solving for p, Initial residual = 6.92458e-06, Final residual = 9.20346e-07, No Iterations 6
time step continuity errors : sum local = 3.60649e-07, global = -5.90957e-08, cumulative = 0.000157886
smoothSolver:  Solving for ReThetat, Initial residual = 1.4507e-05, Final residual = 1.23456e-06, No Iterations 6
smoothSolver:  Solving for gammaInt, Initial residual = 6.66219e-06, Final residual = 2.26704e-07, No Iterations 1
smoothSolver:  Solving for omega, Initial residual = 6.64807e-09, Final residual = 6.64807e-09, No Iterations 0
smoothSolver:  Solving for k, Initial residual = 6.24786e-06, Final residual = 4.31624e-07, No Iterations 5
ExecutionTime = 11.6082 s  ClockTime = 12 s

Time = 253s

smoothSolver:  Solving for Ux, Initial residual = 1.22634e-06, Final residual = 8.34309e-08, No Iterations 6
smoothSolver:  Solving for Uy, Initial residual = 1.61013e-06, Final residual = 1.54034e-07, No Iterations 2
GAMG:  Solving for p, Initial residual = 6.77573e-06, Final residual = 8.87408e-07, No Iterations 6
time step continuity errors : sum local = 3.47755e-07, global = -5.71073e-08, cumulative = 0.000157829
smoothSolver:  Solving for ReThetat, Initial residual = 1.42505e-05, Final residual = 1.22514e-06, No Iterations 6
smoothSolver:  Solving for gammaInt, Initial residual = 6.35882e-06, Final residual = 2.22572e-07, No Iterations 1
smoothSolver:  Solving for omega, Initial residual = 7.68113e-09, Final residual = 7.68113e-09, No Iterations 0
smoothSolver:  Solving for k, Initial residual = 6.08761e-06, Final residual = 4.1679e-07, No Iterations 5
ExecutionTime = 11.6526 s  ClockTime = 12 s

Time = 254s

smoothSolver:  Solving for Ux, Initial residual = 1.18365e-06, Final residual = 8.05329e-08, No Iterations 6
smoothSolver:  Solving for Uy, Initial residual = 1.55505e-06, Final residual = 1.49803e-07, No Iterations 2
GAMG:  Solving for p, Initial residual = 6.70258e-06, Final residual = 8.65594e-07, No Iterations 6
time step continuity errors : sum local = 3.39219e-07, global = -5.59829e-08, cumulative = 0.000157773
smoothSolver:  Solving for ReThetat, Initial residual = 1.41881e-05, Final residual = 1.21615e-06, No Iterations 6
smoothSolver:  Solving for gammaInt, Initial residual = 6.22774e-06, Final residual = 2.20555e-07, No Iterations 1
smoothSolver:  Solving for omega, Initial residual = 8.95179e-09, Final residual = 8.95179e-09, No Iterations 0
smoothSolver:  Solving for k, Initial residual = 5.9719e-06, Final residual = 4.04795e-07, No Iterations 5
ExecutionTime = 11.6949 s  ClockTime = 12 s

Time = 255s

smoothSolver:  Solving for Ux, Initial residual = 1.14233e-06, Final residual = 7.76969e-08, No Iterations 6
smoothSolver:  Solving for Uy, Initial residual = 1.5057e-06, Final residual = 1.45263e-07, No Iterations 2
GAMG:  Solving for p, Initial residual = 6.62694e-06, Final residual = 8.51029e-07, No Iterations 6
time step continuity errors : sum local = 3.33522e-07, global = -5.52454e-08, cumulative = 0.000157718
smoothSolver:  Solving for ReThetat, Initial residual = 1.41684e-05, Final residual = 1.20751e-06, No Iterations 6
smoothSolver:  Solving for gammaInt, Initial residual = 6.13101e-06, Final residual = 2.18811e-07, No Iterations 1
smoothSolver:  Solving for omega, Initial residual = 1.01815e-08, Final residual = 4.45176e-09, No Iterations 1
smoothSolver:  Solving for k, Initial residual = 5.57212e-06, Final residual = 3.86144e-07, No Iterations 5
ExecutionTime = 11.7384 s  ClockTime = 12 s

Time = 256s

smoothSolver:  Solving for Ux, Initial residual = 1.12833e-06, Final residual = 7.64523e-08, No Iterations 6
smoothSolver:  Solving for Uy, Initial residual = 1.45731e-06, Final residual = 1.39206e-07, No Iterations 2
GAMG:  Solving for p, Initial residual = 6.11418e-06, Final residual = 8.2732e-07, No Iterations 6
time step continuity errors : sum local = 3.2424e-07, global = -5.33871e-08, cumulative = 0.000157664
smoothSolver:  Solving for ReThetat, Initial residual = 1.39844e-05, Final residual = 1.19934e-06, No Iterations 6
smoothSolver:  Solving for gammaInt, Initial residual = 6.54359e-06, Final residual = 2.24514e-07, No Iterations 1
smoothSolver:  Solving for omega, Initial residual = 6.27162e-09, Final residual = 6.27162e-09, No Iterations 0
smoothSolver:  Solving for k, Initial residual = 5.51602e-06, Final residual = 3.82011e-07, No Iterations 5
ExecutionTime = 11.7786 s  ClockTime = 12 s

Time = 257s

smoothSolver:  Solving for Ux, Initial residual = 1.08539e-06, Final residual = 7.38968e-08, No Iterations 6
smoothSolver:  Solving for Uy, Initial residual = 1.40672e-06, Final residual = 1.35865e-07, No Iterations 2
GAMG:  Solving for p, Initial residual = 5.98442e-06, Final residual = 8.02174e-07, No Iterations 6
time step continuity errors : sum local = 3.14394e-07, global = -5.18975e-08, cumulative = 0.000157613
smoothSolver:  Solving for ReThetat, Initial residual = 1.37573e-05, Final residual = 1.19015e-06, No Iterations 6
smoothSolver:  Solving for gammaInt, Initial residual = 6.22499e-06, Final residual = 2.19732e-07, No Iterations 1
smoothSolver:  Solving for omega, Initial residual = 7.13423e-09, Final residual = 7.13423e-09, No Iterations 0
smoothSolver:  Solving for k, Initial residual = 5.31703e-06, Final residual = 3.65001e-07, No Iterations 5
ExecutionTime = 11.8185 s  ClockTime = 12 s

Time = 258s

smoothSolver:  Solving for Ux, Initial residual = 1.04827e-06, Final residual = 7.13954e-08, No Iterations 6
smoothSolver:  Solving for Uy, Initial residual = 1.35909e-06, Final residual = 1.3208e-07, No Iterations 2
GAMG:  Solving for p, Initial residual = 5.92403e-06, Final residual = 7.8613e-07, No Iterations 6
time step continuity errors : sum local = 3.08115e-07, global = -5.10344e-08, cumulative = 0.000157562
smoothSolver:  Solving for ReThetat, Initial residual = 1.36858e-05, Final residual = 1.18135e-06, No Iterations 6
smoothSolver:  Solving for gammaInt, Initial residual = 6.09363e-06, Final residual = 2.17595e-07, No Iterations 1
smoothSolver:  Solving for omega, Initial residual = 8.2161e-09, Final residual = 8.2161e-09, No Iterations 0
smoothSolver:  Solving for k, Initial residual = 5.17452e-06, Final residual = 3.51494e-07, No Iterations 5
ExecutionTime = 11.8612 s  ClockTime = 12 s

Time = 259s

smoothSolver:  Solving for Ux, Initial residual = 1.0126e-06, Final residual = 6.89304e-08, No Iterations 6
smoothSolver:  Solving for Uy, Initial residual = 1.31745e-06, Final residual = 1.28132e-07, No Iterations 2
GAMG:  Solving for p, Initial residual = 5.86065e-06, Final residual = 7.74194e-07, No Iterations 6
time step continuity errors : sum local = 3.03444e-07, global = -5.03712e-08, cumulative = 0.000157511
smoothSolver:  Solving for ReThetat, Initial residual = 1.36566e-05, Final residual = 1.17288e-06, No Iterations 6
smoothSolver:  Solving for gammaInt, Initial residual = 5.99845e-06, Final residual = 2.15822e-07, No Iterations 1
smoothSolver:  Solving for omega, Initial residual = 9.28851e-09, Final residual = 9.28851e-09, No Iterations 0
smoothSolver:  Solving for k, Initial residual = 5.07105e-06, Final residual = 3.40561e-07, No Iterations 5
ExecutionTime = 11.9029 s  ClockTime = 12 s

Time = 260s

smoothSolver:  Solving for Ux, Initial residual = 9.77623e-07, Final residual = 6.65122e-08, No Iterations 6
smoothSolver:  Solving for Uy, Initial residual = 1.28082e-06, Final residual = 1.2424e-07, No Iterations 2
GAMG:  Solving for p, Initial residual = 5.78305e-06, Final residual = 7.61514e-07, No Iterations 6
time step continuity errors : sum local = 2.98481e-07, global = -4.96157e-08, cumulative = 0.000157462
smoothSolver:  Solving for ReThetat, Initial residual = 1.36209e-05, Final residual = 1.16468e-06, No Iterations 6
smoothSolver:  Solving for gammaInt, Initial residual = 5.91046e-06, Final residual = 2.14067e-07, No Iterations 1
smoothSolver:  Solving for omega, Initial residual = 1.03254e-08, Final residual = 4.47818e-09, No Iterations 1
smoothSolver:  Solving for k, Initial residual = 4.74059e-06, Final residual = 3.28208e-07, No Iterations 5
ExecutionTime = 11.9449 s  ClockTime = 12 s

Time = 261s

smoothSolver:  Solving for Ux, Initial residual = 9.72368e-07, Final residual = 6.56921e-08, No Iterations 6
smoothSolver:  Solving for Uy, Initial residual = 1.24179e-06, Final residual = 1.1884e-07, No Iterations 2
GAMG:  Solving for p, Initial residual = 5.26329e-06, Final residual = 7.35703e-07, No Iterations 6
time step continuity errors : sum local = 2.88371e-07, global = -4.75885e-08, cumulative = 0.000157414
smoothSolver:  Solving for ReThetat, Initial residual = 1.34138e-05, Final residual = 1.15686e-06, No Iterations 6
smoothSolver:  Solving for gammaInt, Initial residual = 6.40583e-06, Final residual = 2.21724e-07, No Iterations 1
smoothSolver:  Solving for omega, Initial residual = 6.2247e-09, Final residual = 6.2247e-09, No Iterations 0
smoothSolver:  Solving for k, Initial residual = 4.74943e-06, Final residual = 3.29212e-07, No Iterations 5
ExecutionTime = 11.9876 s  ClockTime = 12 s

Time = 262s

smoothSolver:  Solving for Ux, Initial residual = 9.33412e-07, Final residual = 6.35473e-08, No Iterations 6
smoothSolver:  Solving for Uy, Initial residual = 1.19894e-06, Final residual = 1.16065e-07, No Iterations 2
GAMG:  Solving for p, Initial residual = 5.12856e-06, Final residual = 7.09374e-07, No Iterations 6
time step continuity errors : sum local = 2.78057e-07, global = -4.59861e-08, cumulative = 0.000157368
smoothSolver:  Solving for ReThetat, Initial residual = 1.31892e-05, Final residual = 1.148e-06, No Iterations 6
smoothSolver:  Solving for gammaInt, Initial residual = 6.04152e-06, Final residual = 2.15704e-07, No Iterations 1
smoothSolver:  Solving for omega, Initial residual = 6.88572e-09, Final residual = 6.88572e-09, No Iterations 0
smoothSolver:  Solving for k, Initial residual = 4.52971e-06, Final residual = 3.11552e-07, No Iterations 5
ExecutionTime = 12.0295 s  ClockTime = 12 s

Time = 263s

smoothSolver:  Solving for Ux, Initial residual = 9.01548e-07, Final residual = 6.14447e-08, No Iterations 6
smoothSolver:  Solving for Uy, Initial residual = 1.15723e-06, Final residual = 1.12809e-07, No Iterations 2
GAMG:  Solving for p, Initial residual = 5.08245e-06, Final residual = 6.93893e-07, No Iterations 6
time step continuity errors : sum local = 2.71995e-07, global = -4.51699e-08, cumulative = 0.000157323
smoothSolver:  Solving for ReThetat, Initial residual = 1.31005e-05, Final residual = 1.13948e-06, No Iterations 6
smoothSolver:  Solving for gammaInt, Initial residual = 5.90416e-06, Final residual = 2.13294e-07, No Iterations 1
smoothSolver:  Solving for omega, Initial residual = 7.68045e-09, Final residual = 7.68045e-09, No Iterations 0
smoothSolver:  Solving for k, Initial residual = 4.37769e-06, Final residual = 2.97757e-07, No Iterations 5
ExecutionTime = 12.0714 s  ClockTime = 12 s

Time = 264s

smoothSolver:  Solving for Ux, Initial residual = 8.71377e-07, Final residual = 5.93672e-08, No Iterations 6
smoothSolver:  Solving for Uy, Initial residual = 1.1206e-06, Final residual = 1.09396e-07, No Iterations 2
GAMG:  Solving for p, Initial residual = 5.03458e-06, Final residual = 6.84127e-07, No Iterations 6
time step continuity errors : sum local = 2.68172e-07, global = -4.46685e-08, cumulative = 0.000157278
smoothSolver:  Solving for ReThetat, Initial residual = 1.3067e-05, Final residual = 1.13125e-06, No Iterations 6
smoothSolver:  Solving for gammaInt, Initial residual = 5.80919e-06, Final residual = 2.11358e-07, No Iterations 1
smoothSolver:  Solving for omega, Initial residual = 8.58391e-09, Final residual = 8.58391e-09, No Iterations 0
smoothSolver:  Solving for k, Initial residual = 4.27189e-06, Final residual = 2.86701e-07, No Iterations 5
ExecutionTime = 12.1146 s  ClockTime = 12 s

Time = 265s

smoothSolver:  Solving for Ux, Initial residual = 8.41908e-07, Final residual = 5.73293e-08, No Iterations 6
smoothSolver:  Solving for Uy, Initial residual = 1.08889e-06, Final residual = 1.06048e-07, No Iterations 2
GAMG:  Solving for p, Initial residual = 4.96869e-06, Final residual = 6.74094e-07, No Iterations 6
time step continuity errors : sum local = 2.64244e-07, global = -4.40987e-08, cumulative = 0.000157234
smoothSolver:  Solving for ReThetat, Initial residual = 1.3032e-05, Final residual = 1.12327e-06, No Iterations 6
smoothSolver:  Solving for gammaInt, Initial residual = 5.72275e-06, Final residual = 2.0946e-07, No Iterations 1
smoothSolver:  Solving for omega, Initial residual = 9.46381e-09, Final residual = 9.46381e-09, No Iterations 0
smoothSolver:  Solving for k, Initial residual = 4.20329e-06, Final residual = 2.77961e-07, No Iterations 5
ExecutionTime = 12.1569 s  ClockTime = 12 s

Time = 266s

smoothSolver:  Solving for Ux, Initial residual = 8.12926e-07, Final residual = 5.53318e-08, No Iterations 6
smoothSolver:  Solving for Uy, Initial residual = 1.06013e-06, Final residual = 1.02801e-07, No Iterations 2
GAMG:  Solving for p, Initial residual = 4.88883e-06, Final residual = 6.61392e-07, No Iterations 6
time step continuity errors : sum local = 2.59269e-07, global = -4.33304e-08, cumulative = 0.000157191
smoothSolver:  Solving for ReThetat, Initial residual = 1.29807e-05, Final residual = 1.11547e-06, No Iterations 6
smoothSolver:  Solving for gammaInt, Initial residual = 5.64095e-06, Final residual = 2.07561e-07, No Iterations 1
smoothSolver:  Solving for omega, Initial residual = 1.03159e-08, Final residual = 4.50915e-09, No Iterations 1
smoothSolver:  Solving for k, Initial residual = 3.93672e-06, Final residual = 2.72844e-07, No Iterations 5
ExecutionTime = 12.1992 s  ClockTime = 12 s

Time = 267s

smoothSolver:  Solving for Ux, Initial residual = 8.1815e-07, Final residual = 5.49243e-08, No Iterations 6
smoothSolver:  Solving for Uy, Initial residual = 1.02769e-06, Final residual = 9.80857e-08, No Iterations 2
GAMG:  Solving for p, Initial residual = 4.3862e-06, Final residual = 6.35001e-07, No Iterations 6
time step continuity errors : sum local = 2.48927e-07, global = -4.12722e-08, cumulative = 0.000157149
smoothSolver:  Solving for ReThetat, Initial residual = 1.27635e-05, Final residual = 1.10799e-06, No Iterations 6
smoothSolver:  Solving for gammaInt, Initial residual = 6.24167e-06, Final residual = 2.17806e-07, No Iterations 1
smoothSolver:  Solving for omega, Initial residual = 6.14671e-09, Final residual = 6.14671e-09, No Iterations 0
smoothSolver:  Solving for k, Initial residual = 4.02983e-06, Final residual = 2.80209e-07, No Iterations 5
ExecutionTime = 12.2419 s  ClockTime = 12 s

Time = 268s

smoothSolver:  Solving for Ux, Initial residual = 7.81834e-07, Final residual = 5.31749e-08, No Iterations 6
smoothSolver:  Solving for Uy, Initial residual = 9.90697e-07, Final residual = 9.59429e-08, No Iterations 2
GAMG:  Solving for p, Initial residual = 4.26529e-06, Final residual = 9.59567e-07, No Iterations 4
time step continuity errors : sum local = 3.76167e-07, global = -8.20401e-08, cumulative = 0.000157067
smoothSolver:  Solving for ReThetat, Initial residual = 1.25644e-05, Final residual = 1.09946e-06, No Iterations 6
smoothSolver:  Solving for gammaInt, Initial residual = 5.81425e-06, Final residual = 2.10085e-07, No Iterations 1
smoothSolver:  Solving for omega, Initial residual = 6.698e-09, Final residual = 6.698e-09, No Iterations 0
smoothSolver:  Solving for k, Initial residual = 3.78791e-06, Final residual = 2.61849e-07, No Iterations 5
ExecutionTime = 12.283 s  ClockTime = 12 s


SIMPLE solution converged in 268 iterations

End

