/*---------------------------------------------------------------------------*\
  =========                 |
  \\      /  F ield         | OpenFOAM: The Open Source CFD Toolbox
   \\    /   O peration     | Website:  https://openfoam.org
    \\  /    A nd           | Version:  13
     \\/     M anipulation  |
\*---------------------------------------------------------------------------*/
Build  : 13-441953dfbb42
Exec   : foamRun
Date   : May 17 2026
Time   : 12:48:11
Host   : "B3D-adscfd01"
PID    : 3382419
I/O    : uncollated
Case   : /home/ads-user/openfoam/openfoam-T3A-transition/studies/Tu1
nProcs : 1
sigFpe : Enabling floating point exception trapping (FOAM_SIGFPE).
fileModificationChecking : Monitoring run-time modified files using timeStampMaster (fileModificationSkew 10)
allowSystemOperations : Allowing user-supplied system call operations

// * * * * * * * * * * * * * * * * * * * * * * * * * * * * * * * * * * * * * //
Create time

Create mesh for time = 0

Selecting solver incompressibleFluid
Selecting viscosity model constant
Selecting turbulence model type RAS
    Selecting RAS turbulence model kOmegaSSTLM
No MRF models present

Selecting patchDistMethod meshWave

SIMPLE: Convergence criteria found
        p: tolerance 1e-05
        U: tolerance 1e-06
        "(k|omega|gammaInt|ReThetat)": tolerance 0.0001


SIMPLE: Operating solver in steady-state mode with 1 outer corrector
SIMPLE: Operating solver in SIMPLE mode



Starting time loop

wallShearStress wallShearStress:
    processing all wall patches

Reading set description:
    line

Reading set description:
    line

Time = 1s

smoothSolver:  Solving for Ux, Initial residual = 1, Final residual = 0.071093, No Iterations 5
smoothSolver:  Solving for Uy, Initial residual = 1, Final residual = 0.0935674, No Iterations 3
GAMG:  Solving for p, Initial residual = 1, Final residual = 0.077385, No Iterations 28
time step continuity errors : sum local = 0.000108463, global = -3.54715e-06, cumulative = -3.54715e-06
--> FOAM Warning : 
    From function Foam::tmp<Foam::DimensionedField<double, Foam::volMesh> > Foam::RASModels::kOmegaSSTLM<BasicMomentumTransportModel>::ReThetat0(const Internal&, const Internal&, const Internal&) const [with BasicMomentumTransportModel = Foam::incompressibleMomentumTransportModel; Foam::GeometricField<double, Foam::volMesh, Foam::Field>::Internal = Foam::DimensionedField<double, Foam::volMesh>]
    in file ../momentumTransportModels/lnInclude/kOmegaSSTLM.C at line 300
    Number of lambda iterations exceeds maxLambdaIter(10)
smoothSolver:  Solving for ReThetat, Initial residual = 1, Final residual = 0.0317631, No Iterations 1
smoothSolver:  Solving for gammaInt, Initial residual = 1, Final residual = 1.09319, No Iterations 10
smoothSolver:  Solving for omega, Initial residual = 0.0517816, Final residual = 0.00485219, No Iterations 3
smoothSolver:  Solving for k, Initial residual = 1, Final residual = 0.0211682, No Iterations 2
ExecutionTime = 0.294191 s  ClockTime = 1 s

Time = 2s

smoothSolver:  Solving for Ux, Initial residual = 0.188933, Final residual = 0.0134125, No Iterations 2
smoothSolver:  Solving for Uy, Initial residual = 0.0380344, Final residual = 0.00281361, No Iterations 2
GAMG:  Solving for p, Initial residual = 0.0029534, Final residual = 0.000266637, No Iterations 16
time step continuity errors : sum local = 0.00169947, global = 0.000245518, cumulative = 0.000241971
--> FOAM Warning : 
    From function Foam::tmp<Foam::DimensionedField<double, Foam::volMesh> > Foam::RASModels::kOmegaSSTLM<BasicMomentumTransportModel>::ReThetat0(const Internal&, const Internal&, const Internal&) const [with BasicMomentumTransportModel = Foam::incompressibleMomentumTransportModel; Foam::GeometricField<double, Foam::volMesh, Foam::Field>::Internal = Foam::DimensionedField<double, Foam::volMesh>]
    in file ../momentumTransportModels/lnInclude/kOmegaSSTLM.C at line 300
    Number of lambda iterations exceeds maxLambdaIter(10)
smoothSolver:  Solving for ReThetat, Initial residual = 0.27276, Final residual = 0.0114049, No Iterations 1
smoothSolver:  Solving for gammaInt, Initial residual = 1, Final residual = 0.017775, No Iterations 1
smoothSolver:  Solving for omega, Initial residual = 0.140178, Final residual = 0.000458218, No Iterations 1
smoothSolver:  Solving for k, Initial residual = 0.120032, Final residual = 0.00687201, No Iterations 2
ExecutionTime = 0.342377 s  ClockTime = 1 s

Time = 3s

smoothSolver:  Solving for Ux, Initial residual = 0.0327156, Final residual = 0.00300798, No Iterations 3
smoothSolver:  Solving for Uy, Initial residual = 0.0181945, Final residual = 0.00134605, No Iterations 2
GAMG:  Solving for p, Initial residual = 0.00890208, Final residual = 0.00084826, No Iterations 12
time step continuity errors : sum local = 0.00130285, global = 0.000263657, cumulative = 0.000505628
--> FOAM Warning : 
    From function Foam::tmp<Foam::DimensionedField<double, Foam::volMesh> > Foam::RASModels::kOmegaSSTLM<BasicMomentumTransportModel>::ReThetat0(const Internal&, const Internal&, const Internal&) const [with BasicMomentumTransportModel = Foam::incompressibleMomentumTransportModel; Foam::GeometricField<double, Foam::volMesh, Foam::Field>::Internal = Foam::DimensionedField<double, Foam::volMesh>]
    in file ../momentumTransportModels/lnInclude/kOmegaSSTLM.C at line 300
    Number of lambda iterations exceeds maxLambdaIter(10)
smoothSolver:  Solving for ReThetat, Initial residual = 0.139735, Final residual = 0.00699736, No Iterations 1
smoothSolver:  Solving for gammaInt, Initial residual = 0.0370959, Final residual = 0.00260673, No Iterations 2
smoothSolver:  Solving for omega, Initial residual = 0.00787131, Final residual = 9.50759e-05, No Iterations 1
smoothSolver:  Solving for k, Initial residual = 0.132537, Final residual = 0.00804017, No Iterations 2
ExecutionTime = 0.386637 s  ClockTime = 1 s

Time = 4s

smoothSolver:  Solving for Ux, Initial residual = 0.0140265, Final residual = 0.00115498, No Iterations 4
smoothSolver:  Solving for Uy, Initial residual = 0.0119592, Final residual = 0.000969282, No Iterations 2
GAMG:  Solving for p, Initial residual = 0.0138995, Final residual = 0.00130824, No Iterations 10
time step continuity errors : sum local = 0.000727134, global = 0.000148653, cumulative = 0.000654281
--> FOAM Warning : 
    From function Foam::tmp<Foam::DimensionedField<double, Foam::volMesh> > Foam::RASModels::kOmegaSSTLM<BasicMomentumTransportModel>::ReThetat0(const Internal&, const Internal&, const Internal&) const [with BasicMomentumTransportModel = Foam::incompressibleMomentumTransportModel; Foam::GeometricField<double, Foam::volMesh, Foam::Field>::Internal = Foam::DimensionedField<double, Foam::volMesh>]
    in file ../momentumTransportModels/lnInclude/kOmegaSSTLM.C at line 300
    Number of lambda iterations exceeds maxLambdaIter(10)
smoothSolver:  Solving for ReThetat, Initial residual = 0.0893488, Final residual = 0.00511202, No Iterations 1
smoothSolver:  Solving for gammaInt, Initial residual = 0.0105575, Final residual = 0.000795054, No Iterations 3
smoothSolver:  Solving for omega, Initial residual = 0.00792223, Final residual = 6.32718e-05, No Iterations 1
smoothSolver:  Solving for k, Initial residual = 0.123632, Final residual = 0.00887688, No Iterations 2
ExecutionTime = 0.429517 s  ClockTime = 1 s

Time = 5s

smoothSolver:  Solving for Ux, Initial residual = 0.00868899, Final residual = 0.000850449, No Iterations 4
smoothSolver:  Solving for Uy, Initial residual = 0.00863953, Final residual = 0.000803881, No Iterations 2
GAMG:  Solving for p, Initial residual = 0.0199621, Final residual = 0.00114812, No Iterations 8
time step continuity errors : sum local = 0.000359954, global = 6.02939e-05, cumulative = 0.000714575
--> FOAM Warning : 
    From function Foam::tmp<Foam::DimensionedField<double, Foam::volMesh> > Foam::RASModels::kOmegaSSTLM<BasicMomentumTransportModel>::ReThetat0(const Internal&, const Internal&, const Internal&) const [with BasicMomentumTransportModel = Foam::incompressibleMomentumTransportModel; Foam::GeometricField<double, Foam::volMesh, Foam::Field>::Internal = Foam::DimensionedField<double, Foam::volMesh>]
    in file ../momentumTransportModels/lnInclude/kOmegaSSTLM.C at line 300
    Number of lambda iterations exceeds maxLambdaIter(10)
smoothSolver:  Solving for ReThetat, Initial residual = 0.0636704, Final residual = 0.00413067, No Iterations 1
smoothSolver:  Solving for gammaInt, Initial residual = 0.00555883, Final residual = 0.000314456, No Iterations 4
smoothSolver:  Solving for omega, Initial residual = 0.00315113, Final residual = 5.94687e-05, No Iterations 1
smoothSolver:  Solving for k, Initial residual = 0.0860416, Final residual = 0.00624592, No Iterations 2
ExecutionTime = 0.470932 s  ClockTime = 1 s

Time = 6s

smoothSolver:  Solving for Ux, Initial residual = 0.00654579, Final residual = 0.00040835, No Iterations 5
smoothSolver:  Solving for Uy, Initial residual = 0.00691386, Final residual = 0.000357621, No Iterations 3
GAMG:  Solving for p, Initial residual = 0.0216114, Final residual = 0.00156173, No Iterations 7
time step continuity errors : sum local = 0.00043442, global = -9.53234e-05, cumulative = 0.000619252
--> FOAM Warning : 
    From function Foam::tmp<Foam::DimensionedField<double, Foam::volMesh> > Foam::RASModels::kOmegaSSTLM<BasicMomentumTransportModel>::ReThetat0(const Internal&, const Internal&, const Internal&) const [with BasicMomentumTransportModel = Foam::incompressibleMomentumTransportModel; Foam::GeometricField<double, Foam::volMesh, Foam::Field>::Internal = Foam::DimensionedField<double, Foam::volMesh>]
    in file ../momentumTransportModels/lnInclude/kOmegaSSTLM.C at line 300
    Number of lambda iterations exceeds maxLambdaIter(10)
smoothSolver:  Solving for ReThetat, Initial residual = 0.0480923, Final residual = 0.00346626, No Iterations 1
smoothSolver:  Solving for gammaInt, Initial residual = 0.0037773, Final residual = 0.000222454, No Iterations 4
smoothSolver:  Solving for omega, Initial residual = 0.00231713, Final residual = 4.01451e-05, No Iterations 1
smoothSolver:  Solving for k, Initial residual = 0.0583271, Final residual = 0.00435592, No Iterations 2
ExecutionTime = 0.512978 s  ClockTime = 1 s

Time = 7s

smoothSolver:  Solving for Ux, Initial residual = 0.0048113, Final residual = 0.000331175, No Iterations 5
smoothSolver:  Solving for Uy, Initial residual = 0.0054952, Final residual = 0.000343117, No Iterations 3
GAMG:  Solving for p, Initial residual = 0.0179708, Final residual = 0.00161333, No Iterations 7
time step continuity errors : sum local = 0.000413942, global = -0.000110058, cumulative = 0.000509194
--> FOAM Warning : 
    From function Foam::tmp<Foam::DimensionedField<double, Foam::volMesh> > Foam::RASModels::kOmegaSSTLM<BasicMomentumTransportModel>::ReThetat0(const Internal&, const Internal&, const Internal&) const [with BasicMomentumTransportModel = Foam::incompressibleMomentumTransportModel; Foam::GeometricField<double, Foam::volMesh, Foam::Field>::Internal = Foam::DimensionedField<double, Foam::volMesh>]
    in file ../momentumTransportModels/lnInclude/kOmegaSSTLM.C at line 300
    Number of lambda iterations exceeds maxLambdaIter(10)
smoothSolver:  Solving for ReThetat, Initial residual = 0.0381796, Final residual = 0.00307187, No Iterations 1
smoothSolver:  Solving for gammaInt, Initial residual = 0.00292753, Final residual = 0.000164006, No Iterations 4
smoothSolver:  Solving for omega, Initial residual = 0.00114913, Final residual = 2.30736e-05, No Iterations 1
smoothSolver:  Solving for k, Initial residual = 0.0442203, Final residual = 0.00334591, No Iterations 2
ExecutionTime = 0.556177 s  ClockTime = 1 s

Time = 8s

smoothSolver:  Solving for Ux, Initial residual = 0.00394408, Final residual = 0.000273174, No Iterations 5
smoothSolver:  Solving for Uy, Initial residual = 0.00469048, Final residual = 0.000321052, No Iterations 3
GAMG:  Solving for p, Initial residual = 0.0162855, Final residual = 0.00128923, No Iterations 7
time step continuity errors : sum local = 0.000324012, global = -1.53357e-05, cumulative = 0.000493858
--> FOAM Warning : 
    From function Foam::tmp<Foam::DimensionedField<double, Foam::volMesh> > Foam::RASModels::kOmegaSSTLM<BasicMomentumTransportModel>::ReThetat0(const Internal&, const Internal&, const Internal&) const [with BasicMomentumTransportModel = Foam::incompressibleMomentumTransportModel; Foam::GeometricField<double, Foam::volMesh, Foam::Field>::Internal = Foam::DimensionedField<double, Foam::volMesh>]
    in file ../momentumTransportModels/lnInclude/kOmegaSSTLM.C at line 300
    Number of lambda iterations exceeds maxLambdaIter(10)
smoothSolver:  Solving for ReThetat, Initial residual = 0.0316435, Final residual = 0.00275109, No Iterations 1
smoothSolver:  Solving for gammaInt, Initial residual = 0.00206858, Final residual = 0.000189504, No Iterations 3
smoothSolver:  Solving for omega, Initial residual = 0.000748447, Final residual = 1.8706e-05, No Iterations 1
smoothSolver:  Solving for k, Initial residual = 0.0340682, Final residual = 0.00262529, No Iterations 2
ExecutionTime = 0.597689 s  ClockTime = 1 s

Time = 9s

smoothSolver:  Solving for Ux, Initial residual = 0.00330525, Final residual = 0.000233427, No Iterations 5
smoothSolver:  Solving for Uy, Initial residual = 0.00409432, Final residual = 0.000293731, No Iterations 3
GAMG:  Solving for p, Initial residual = 0.0168423, Final residual = 0.00107713, No Iterations 6
time step continuity errors : sum local = 0.000228892, global = -3.65524e-07, cumulative = 0.000493492
--> FOAM Warning : 
    From function Foam::tmp<Foam::DimensionedField<double, Foam::volMesh> > Foam::RASModels::kOmegaSSTLM<BasicMomentumTransportModel>::ReThetat0(const Internal&, const Internal&, const Internal&) const [with BasicMomentumTransportModel = Foam::incompressibleMomentumTransportModel; Foam::GeometricField<double, Foam::volMesh, Foam::Field>::Internal = Foam::DimensionedField<double, Foam::volMesh>]
    in file ../momentumTransportModels/lnInclude/kOmegaSSTLM.C at line 300
    Number of lambda iterations exceeds maxLambdaIter(10)
smoothSolver:  Solving for ReThetat, Initial residual = 0.0264285, Final residual = 0.0025383, No Iterations 1
smoothSolver:  Solving for gammaInt, Initial residual = 0.00221164, Final residual = 0.000161576, No Iterations 3
smoothSolver:  Solving for omega, Initial residual = 0.000398717, Final residual = 9.06252e-06, No Iterations 1
smoothSolver:  Solving for k, Initial residual = 0.0275005, Final residual = 0.00218029, No Iterations 2
ExecutionTime = 0.636818 s  ClockTime = 1 s

Time = 10s

smoothSolver:  Solving for Ux, Initial residual = 0.00274117, Final residual = 0.000199039, No Iterations 5
smoothSolver:  Solving for Uy, Initial residual = 0.00370348, Final residual = 0.000265282, No Iterations 3
GAMG:  Solving for p, Initial residual = 0.0180976, Final residual = 0.00155174, No Iterations 6
time step continuity errors : sum local = 0.000264088, global = -4.76589e-05, cumulative = 0.000445833
--> FOAM Warning : 
    From function Foam::tmp<Foam::DimensionedField<double, Foam::volMesh> > Foam::RASModels::kOmegaSSTLM<BasicMomentumTransportModel>::ReThetat0(const Internal&, const Internal&, const Internal&) const [with BasicMomentumTransportModel = Foam::incompressibleMomentumTransportModel; Foam::GeometricField<double, Foam::volMesh, Foam::Field>::Internal = Foam::DimensionedField<double, Foam::volMesh>]
    in file ../momentumTransportModels/lnInclude/kOmegaSSTLM.C at line 300
    Number of lambda iterations exceeds maxLambdaIter(10)
smoothSolver:  Solving for ReThetat, Initial residual = 0.0223807, Final residual = 0.00123283, No Iterations 2
smoothSolver:  Solving for gammaInt, Initial residual = 0.00200592, Final residual = 0.000120225, No Iterations 3
smoothSolver:  Solving for omega, Initial residual = 0.000256152, Final residual = 9.30591e-06, No Iterations 1
smoothSolver:  Solving for k, Initial residual = 0.0224839, Final residual = 0.00183706, No Iterations 2
ExecutionTime = 0.676082 s  ClockTime = 1 s

Time = 11s

smoothSolver:  Solving for Ux, Initial residual = 0.002427, Final residual = 0.000175717, No Iterations 5
smoothSolver:  Solving for Uy, Initial residual = 0.00345818, Final residual = 0.000237834, No Iterations 3
GAMG:  Solving for p, Initial residual = 0.0260425, Final residual = 0.00175707, No Iterations 6
time step continuity errors : sum local = 0.000188423, global = 3.27218e-05, cumulative = 0.000478555
--> FOAM Warning : 
    From function Foam::tmp<Foam::DimensionedField<double, Foam::volMesh> > Foam::RASModels::kOmegaSSTLM<BasicMomentumTransportModel>::ReThetat0(const Internal&, const Internal&, const Internal&) const [with BasicMomentumTransportModel = Foam::incompressibleMomentumTransportModel; Foam::GeometricField<double, Foam::volMesh, Foam::Field>::Internal = Foam::DimensionedField<double, Foam::volMesh>]
    in file ../momentumTransportModels/lnInclude/kOmegaSSTLM.C at line 300
    Number of lambda iterations exceeds maxLambdaIter(10)
smoothSolver:  Solving for ReThetat, Initial residual = 0.0196304, Final residual = 0.00117406, No Iterations 2
smoothSolver:  Solving for gammaInt, Initial residual = 0.00172434, Final residual = 8.2608e-05, No Iterations 3
smoothSolver:  Solving for omega, Initial residual = 0.000139088, Final residual = 4.97769e-06, No Iterations 1
smoothSolver:  Solving for k, Initial residual = 0.0187874, Final residual = 0.00160179, No Iterations 2
ExecutionTime = 0.715145 s  ClockTime = 1 s

Time = 12s

smoothSolver:  Solving for Ux, Initial residual = 0.00208006, Final residual = 0.000153652, No Iterations 5
smoothSolver:  Solving for Uy, Initial residual = 0.00326307, Final residual = 0.000215769, No Iterations 3
GAMG:  Solving for p, Initial residual = 0.0392978, Final residual = 0.00345091, No Iterations 6
time step continuity errors : sum local = 0.000204745, global = -4.45766e-05, cumulative = 0.000433979
--> FOAM Warning : 
    From function Foam::tmp<Foam::DimensionedField<double, Foam::volMesh> > Foam::RASModels::kOmegaSSTLM<BasicMomentumTransportModel>::ReThetat0(const Internal&, const Internal&, const Internal&) const [with BasicMomentumTransportModel = Foam::incompressibleMomentumTransportModel; Foam::GeometricField<double, Foam::volMesh, Foam::Field>::Internal = Foam::DimensionedField<double, Foam::volMesh>]
    in file ../momentumTransportModels/lnInclude/kOmegaSSTLM.C at line 300
    Number of lambda iterations exceeds maxLambdaIter(10)
smoothSolver:  Solving for ReThetat, Initial residual = 0.0166588, Final residual = 0.00110333, No Iterations 2
smoothSolver:  Solving for gammaInt, Initial residual = 0.00207798, Final residual = 7.71943e-05, No Iterations 3
smoothSolver:  Solving for omega, Initial residual = 9.41156e-05, Final residual = 5.48325e-06, No Iterations 1
smoothSolver:  Solving for k, Initial residual = 0.0157962, Final residual = 0.00140086, No Iterations 2
ExecutionTime = 0.755502 s  ClockTime = 1 s

Time = 13s

smoothSolver:  Solving for Ux, Initial residual = 0.00186373, Final residual = 0.000138268, No Iterations 5
smoothSolver:  Solving for Uy, Initial residual = 0.0030571, Final residual = 0.000197522, No Iterations 3
GAMG:  Solving for p, Initial residual = 0.116673, Final residual = 0.00810776, No Iterations 6
time step continuity errors : sum local = 0.000147352, global = 2.62782e-05, cumulative = 0.000460257
--> FOAM Warning : 
    From function Foam::tmp<Foam::DimensionedField<double, Foam::volMesh> > Foam::RASModels::kOmegaSSTLM<BasicMomentumTransportModel>::ReThetat0(const Internal&, const Internal&, const Internal&) const [with BasicMomentumTransportModel = Foam::incompressibleMomentumTransportModel; Foam::GeometricField<double, Foam::volMesh, Foam::Field>::Internal = Foam::DimensionedField<double, Foam::volMesh>]
    in file ../momentumTransportModels/lnInclude/kOmegaSSTLM.C at line 300
    Number of lambda iterations exceeds maxLambdaIter(10)
smoothSolver:  Solving for ReThetat, Initial residual = 0.0151681, Final residual = 0.00107133, No Iterations 2
smoothSolver:  Solving for gammaInt, Initial residual = 0.0017708, Final residual = 0.0001758, No Iterations 2
smoothSolver:  Solving for omega, Initial residual = 5.2367e-05, Final residual = 3.48281e-06, No Iterations 1
smoothSolver:  Solving for k, Initial residual = 0.0134292, Final residual = 0.00123905, No Iterations 2
ExecutionTime = 0.795806 s  ClockTime = 1 s

Time = 14s

smoothSolver:  Solving for Ux, Initial residual = 0.00166072, Final residual = 0.000123, No Iterations 5
smoothSolver:  Solving for Uy, Initial residual = 0.0028959, Final residual = 0.000184823, No Iterations 3
GAMG:  Solving for p, Initial residual = 0.0416274, Final residual = 0.00323798, No Iterations 6
time step continuity errors : sum local = 0.000140387, global = -2.71809e-05, cumulative = 0.000433076
--> FOAM Warning : 
    From function Foam::tmp<Foam::DimensionedField<double, Foam::volMesh> > Foam::RASModels::kOmegaSSTLM<BasicMomentumTransportModel>::ReThetat0(const Internal&, const Internal&, const Internal&) const [with BasicMomentumTransportModel = Foam::incompressibleMomentumTransportModel; Foam::GeometricField<double, Foam::volMesh, Foam::Field>::Internal = Foam::DimensionedField<double, Foam::volMesh>]
    in file ../momentumTransportModels/lnInclude/kOmegaSSTLM.C at line 300
    Number of lambda iterations exceeds maxLambdaIter(10)
smoothSolver:  Solving for ReThetat, Initial residual = 0.0131579, Final residual = 0.00101829, No Iterations 2
smoothSolver:  Solving for gammaInt, Initial residual = 0.00183105, Final residual = 0.000163147, No Iterations 2
smoothSolver:  Solving for omega, Initial residual = 3.89339e-05, Final residual = 3.79835e-06, No Iterations 1
smoothSolver:  Solving for k, Initial residual = 0.0114776, Final residual = 0.00109837, No Iterations 2
ExecutionTime = 0.834199 s  ClockTime = 1 s

Time = 15s

smoothSolver:  Solving for Ux, Initial residual = 0.00149215, Final residual = 0.000111958, No Iterations 5
smoothSolver:  Solving for Uy, Initial residual = 0.00273153, Final residual = 0.000175817, No Iterations 3
GAMG:  Solving for p, Initial residual = 0.0243128, Final residual = 0.00158178, No Iterations 6
time step continuity errors : sum local = 0.000103611, global = -1.14696e-05, cumulative = 0.000421606
--> FOAM Warning : 
    From function Foam::tmp<Foam::DimensionedField<double, Foam::volMesh> > Foam::RASModels::kOmegaSSTLM<BasicMomentumTransportModel>::ReThetat0(const Internal&, const Internal&, const Internal&) const [with BasicMomentumTransportModel = Foam::incompressibleMomentumTransportModel; Foam::GeometricField<double, Foam::volMesh, Foam::Field>::Internal = Foam::DimensionedField<double, Foam::volMesh>]
    in file ../momentumTransportModels/lnInclude/kOmegaSSTLM.C at line 300
    Number of lambda iterations exceeds maxLambdaIter(10)
smoothSolver:  Solving for ReThetat, Initial residual = 0.0120538, Final residual = 0.000996105, No Iterations 2
smoothSolver:  Solving for gammaInt, Initial residual = 0.00198017, Final residual = 0.000164111, No Iterations 2
smoothSolver:  Solving for omega, Initial residual = 2.2544e-05, Final residual = 8.93013e-07, No Iterations 2
smoothSolver:  Solving for k, Initial residual = 0.00984316, Final residual = 0.000977971, No Iterations 2
ExecutionTime = 0.873296 s  ClockTime = 1 s

Time = 16s

smoothSolver:  Solving for Ux, Initial residual = 0.00136324, Final residual = 0.000100773, No Iterations 5
smoothSolver:  Solving for Uy, Initial residual = 0.00256919, Final residual = 0.000168952, No Iterations 3
GAMG:  Solving for p, Initial residual = 0.0180947, Final residual = 0.000969618, No Iterations 6
time step continuity errors : sum local = 7.60291e-05, global = -8.30073e-07, cumulative = 0.000420776
--> FOAM Warning : 
    From function Foam::tmp<Foam::DimensionedField<double, Foam::volMesh> > Foam::RASModels::kOmegaSSTLM<BasicMomentumTransportModel>::ReThetat0(const Internal&, const Internal&, const Internal&) const [with BasicMomentumTransportModel = Foam::incompressibleMomentumTransportModel; Foam::GeometricField<double, Foam::volMesh, Foam::Field>::Internal = Foam::DimensionedField<double, Foam::volMesh>]
    in file ../momentumTransportModels/lnInclude/kOmegaSSTLM.C at line 300
    Number of lambda iterations exceeds maxLambdaIter(10)
smoothSolver:  Solving for ReThetat, Initial residual = 0.0108135, Final residual = 0.000954152, No Iterations 2
smoothSolver:  Solving for gammaInt, Initial residual = 0.00234553, Final residual = 0.000194289, No Iterations 2
smoothSolver:  Solving for omega, Initial residual = 1.70321e-05, Final residual = 6.61506e-07, No Iterations 2
smoothSolver:  Solving for k, Initial residual = 0.00849717, Final residual = 0.000482933, No Iterations 3
ExecutionTime = 0.913678 s  ClockTime = 1 s

Time = 17s

smoothSolver:  Solving for Ux, Initial residual = 0.00122974, Final residual = 9.23334e-05, No Iterations 5
smoothSolver:  Solving for Uy, Initial residual = 0.00242442, Final residual = 0.000161659, No Iterations 3
GAMG:  Solving for p, Initial residual = 0.0139629, Final residual = 0.000966154, No Iterations 6
time step continuity errors : sum local = 8.6101e-05, global = -9.95831e-06, cumulative = 0.000410818
--> FOAM Warning : 
    From function Foam::tmp<Foam::DimensionedField<double, Foam::volMesh> > Foam::RASModels::kOmegaSSTLM<BasicMomentumTransportModel>::ReThetat0(const Internal&, const Internal&, const Internal&) const [with BasicMomentumTransportModel = Foam::incompressibleMomentumTransportModel; Foam::GeometricField<double, Foam::volMesh, Foam::Field>::Internal = Foam::DimensionedField<double, Foam::volMesh>]
    in file ../momentumTransportModels/lnInclude/kOmegaSSTLM.C at line 300
    Number of lambda iterations exceeds maxLambdaIter(10)
smoothSolver:  Solving for ReThetat, Initial residual = 0.009889, Final residual = 0.000934896, No Iterations 2
smoothSolver:  Solving for gammaInt, Initial residual = 0.00207736, Final residual = 0.000181152, No Iterations 2
smoothSolver:  Solving for omega, Initial residual = 1.00386e-05, Final residual = 5.76718e-07, No Iterations 2
smoothSolver:  Solving for k, Initial residual = 0.00732405, Final residual = 0.000422133, No Iterations 3
ExecutionTime = 0.95603 s  ClockTime = 1 s

Time = 18s

smoothSolver:  Solving for Ux, Initial residual = 0.00113271, Final residual = 8.38031e-05, No Iterations 5
smoothSolver:  Solving for Uy, Initial residual = 0.00226668, Final residual = 0.000153212, No Iterations 3
GAMG:  Solving for p, Initial residual = 0.0123418, Final residual = 0.000837478, No Iterations 6
time step continuity errors : sum local = 7.70486e-05, global = -9.75077e-06, cumulative = 0.000401067
--> FOAM Warning : 
    From function Foam::tmp<Foam::DimensionedField<double, Foam::volMesh> > Foam::RASModels::kOmegaSSTLM<BasicMomentumTransportModel>::ReThetat0(const Internal&, const Internal&, const Internal&) const [with BasicMomentumTransportModel = Foam::incompressibleMomentumTransportModel; Foam::GeometricField<double, Foam::volMesh, Foam::Field>::Internal = Foam::DimensionedField<double, Foam::volMesh>]
    in file ../momentumTransportModels/lnInclude/kOmegaSSTLM.C at line 300
    Number of lambda iterations exceeds maxLambdaIter(10)
smoothSolver:  Solving for ReThetat, Initial residual = 0.00897557, Final residual = 0.000542147, No Iterations 3
smoothSolver:  Solving for gammaInt, Initial residual = 0.00181182, Final residual = 0.000164366, No Iterations 2
smoothSolver:  Solving for omega, Initial residual = 1.0022e-05, Final residual = 5.54643e-07, No Iterations 2
smoothSolver:  Solving for k, Initial residual = 0.0063472, Final residual = 0.000367081, No Iterations 3
ExecutionTime = 0.996213 s  ClockTime = 1 s

Time = 19s

smoothSolver:  Solving for Ux, Initial residual = 0.00102444, Final residual = 7.70597e-05, No Iterations 5
smoothSolver:  Solving for Uy, Initial residual = 0.00213176, Final residual = 0.000142858, No Iterations 3
GAMG:  Solving for p, Initial residual = 0.0106341, Final residual = 0.000792515, No Iterations 6
time step continuity errors : sum local = 7.31376e-05, global = 2.25279e-06, cumulative = 0.00040332
--> FOAM Warning : 
    From function Foam::tmp<Foam::DimensionedField<double, Foam::volMesh> > Foam::RASModels::kOmegaSSTLM<BasicMomentumTransportModel>::ReThetat0(const Internal&, const Internal&, const Internal&) const [with BasicMomentumTransportModel = Foam::incompressibleMomentumTransportModel; Foam::GeometricField<double, Foam::volMesh, Foam::Field>::Internal = Foam::DimensionedField<double, Foam::volMesh>]
    in file ../momentumTransportModels/lnInclude/kOmegaSSTLM.C at line 300
    Number of lambda iterations exceeds maxLambdaIter(10)
smoothSolver:  Solving for ReThetat, Initial residual = 0.00832193, Final residual = 0.000520732, No Iterations 3
smoothSolver:  Solving for gammaInt, Initial residual = 0.00163735, Final residual = 0.000151959, No Iterations 2
smoothSolver:  Solving for omega, Initial residual = 6.53518e-06, Final residual = 4.97676e-07, No Iterations 2
smoothSolver:  Solving for k, Initial residual = 0.00552167, Final residual = 0.00031805, No Iterations 3
ExecutionTime = 1.03645 s  ClockTime = 1 s

Time = 20s

smoothSolver:  Solving for Ux, Initial residual = 0.000944327, Final residual = 7.04754e-05, No Iterations 5
smoothSolver:  Solving for Uy, Initial residual = 0.00199648, Final residual = 0.000131376, No Iterations 3
GAMG:  Solving for p, Initial residual = 0.0104975, Final residual = 0.000941957, No Iterations 6
time step continuity errors : sum local = 8.09955e-05, global = 1.74938e-05, cumulative = 0.000420814
--> FOAM Warning : 
    From function Foam::tmp<Foam::DimensionedField<double, Foam::volMesh> > Foam::RASModels::kOmegaSSTLM<BasicMomentumTransportModel>::ReThetat0(const Internal&, const Internal&, const Internal&) const [with BasicMomentumTransportModel = Foam::incompressibleMomentumTransportModel; Foam::GeometricField<double, Foam::volMesh, Foam::Field>::Internal = Foam::DimensionedField<double, Foam::volMesh>]
    in file ../momentumTransportModels/lnInclude/kOmegaSSTLM.C at line 300
    Number of lambda iterations exceeds maxLambdaIter(10)
smoothSolver:  Solving for ReThetat, Initial residual = 0.00760217, Final residual = 0.000488489, No Iterations 3
smoothSolver:  Solving for gammaInt, Initial residual = 0.0013776, Final residual = 0.000130054, No Iterations 2
smoothSolver:  Solving for omega, Initial residual = 6.86181e-06, Final residual = 4.73628e-07, No Iterations 2
smoothSolver:  Solving for k, Initial residual = 0.00482183, Final residual = 0.000275244, No Iterations 3
ExecutionTime = 1.07622 s  ClockTime = 1 s

Time = 21s

smoothSolver:  Solving for Ux, Initial residual = 0.00086012, Final residual = 6.502e-05, No Iterations 5
smoothSolver:  Solving for Uy, Initial residual = 0.00187577, Final residual = 0.00011839, No Iterations 3
GAMG:  Solving for p, Initial residual = 0.0102828, Final residual = 0.000753342, No Iterations 9
time step continuity errors : sum local = 5.76888e-05, global = -1.54046e-05, cumulative = 0.000405409
--> FOAM Warning : 
    From function Foam::tmp<Foam::DimensionedField<double, Foam::volMesh> > Foam::RASModels::kOmegaSSTLM<BasicMomentumTransportModel>::ReThetat0(const Internal&, const Internal&, const Internal&) const [with BasicMomentumTransportModel = Foam::incompressibleMomentumTransportModel; Foam::GeometricField<double, Foam::volMesh, Foam::Field>::Internal = Foam::DimensionedField<double, Foam::volMesh>]
    in file ../momentumTransportModels/lnInclude/kOmegaSSTLM.C at line 300
    Number of lambda iterations exceeds maxLambdaIter(10)
smoothSolver:  Solving for ReThetat, Initial residual = 0.00701365, Final residual = 0.000463448, No Iterations 3
smoothSolver:  Solving for gammaInt, Initial residual = 0.00125932, Final residual = 0.000122949, No Iterations 2
smoothSolver:  Solving for omega, Initial residual = 5.02655e-06, Final residual = 4.36171e-07, No Iterations 2
smoothSolver:  Solving for k, Initial residual = 0.00422704, Final residual = 0.000238615, No Iterations 3
ExecutionTime = 1.12181 s  ClockTime = 1 s

Time = 22s

smoothSolver:  Solving for Ux, Initial residual = 0.000801274, Final residual = 6.00398e-05, No Iterations 5
smoothSolver:  Solving for Uy, Initial residual = 0.00177139, Final residual = 0.000104821, No Iterations 3
GAMG:  Solving for p, Initial residual = 0.0119603, Final residual = 0.00106105, No Iterations 7
time step continuity errors : sum local = 6.5521e-05, global = -2.20417e-05, cumulative = 0.000383367
--> FOAM Warning : 
    From function Foam::tmp<Foam::DimensionedField<double, Foam::volMesh> > Foam::RASModels::kOmegaSSTLM<BasicMomentumTransportModel>::ReThetat0(const Internal&, const Internal&, const Internal&) const [with BasicMomentumTransportModel = Foam::incompressibleMomentumTransportModel; Foam::GeometricField<double, Foam::volMesh, Foam::Field>::Internal = Foam::DimensionedField<double, Foam::volMesh>]
    in file ../momentumTransportModels/lnInclude/kOmegaSSTLM.C at line 300
    Number of lambda iterations exceeds maxLambdaIter(10)
smoothSolver:  Solving for ReThetat, Initial residual = 0.00647092, Final residual = 0.000429735, No Iterations 3
smoothSolver:  Solving for gammaInt, Initial residual = 0.00109078, Final residual = 0.000107065, No Iterations 2
smoothSolver:  Solving for omega, Initial residual = 5.25477e-06, Final residual = 4.12022e-07, No Iterations 2
smoothSolver:  Solving for k, Initial residual = 0.00372482, Final residual = 0.000207537, No Iterations 3
ExecutionTime = 1.16335 s  ClockTime = 1 s

Time = 23s

smoothSolver:  Solving for Ux, Initial residual = 0.000742536, Final residual = 5.55706e-05, No Iterations 5
smoothSolver:  Solving for Uy, Initial residual = 0.00166635, Final residual = 9.11089e-05, No Iterations 3
GAMG:  Solving for p, Initial residual = 0.0144149, Final residual = 0.00116434, No Iterations 10
time step continuity errors : sum local = 5.38636e-05, global = -1.239e-05, cumulative = 0.000370977
--> FOAM Warning : 
    From function Foam::tmp<Foam::DimensionedField<double, Foam::volMesh> > Foam::RASModels::kOmegaSSTLM<BasicMomentumTransportModel>::ReThetat0(const Internal&, const Internal&, const Internal&) const [with BasicMomentumTransportModel = Foam::incompressibleMomentumTransportModel; Foam::GeometricField<double, Foam::volMesh, Foam::Field>::Internal = Foam::DimensionedField<double, Foam::volMesh>]
    in file ../momentumTransportModels/lnInclude/kOmegaSSTLM.C at line 300
    Number of lambda iterations exceeds maxLambdaIter(10)
smoothSolver:  Solving for ReThetat, Initial residual = 0.00609326, Final residual = 0.000400692, No Iterations 3
smoothSolver:  Solving for gammaInt, Initial residual = 0.00100302, Final residual = 3.41593e-05, No Iterations 3
smoothSolver:  Solving for omega, Initial residual = 4.29019e-06, Final residual = 3.84282e-07, No Iterations 2
smoothSolver:  Solving for k, Initial residual = 0.00330634, Final residual = 0.000183155, No Iterations 3
ExecutionTime = 1.2077 s  ClockTime = 2 s

Time = 24s

smoothSolver:  Solving for Ux, Initial residual = 0.000697244, Final residual = 5.18197e-05, No Iterations 5
smoothSolver:  Solving for Uy, Initial residual = 0.00157099, Final residual = 7.9165e-05, No Iterations 3
GAMG:  Solving for p, Initial residual = 0.0220974, Final residual = 0.00171896, No Iterations 10
time step continuity errors : sum local = 4.91173e-05, global = -1.226e-05, cumulative = 0.000358717
--> FOAM Warning : 
    From function Foam::tmp<Foam::DimensionedField<double, Foam::volMesh> > Foam::RASModels::kOmegaSSTLM<BasicMomentumTransportModel>::ReThetat0(const Internal&, const Internal&, const Internal&) const [with BasicMomentumTransportModel = Foam::incompressibleMomentumTransportModel; Foam::GeometricField<double, Foam::volMesh, Foam::Field>::Internal = Foam::DimensionedField<double, Foam::volMesh>]
    in file ../momentumTransportModels/lnInclude/kOmegaSSTLM.C at line 300
    Number of lambda iterations exceeds maxLambdaIter(10)
smoothSolver:  Solving for ReThetat, Initial residual = 0.00563558, Final residual = 0.000366177, No Iterations 3
smoothSolver:  Solving for gammaInt, Initial residual = 0.000832089, Final residual = 2.95821e-05, No Iterations 3
smoothSolver:  Solving for omega, Initial residual = 4.29074e-06, Final residual = 3.62238e-07, No Iterations 2
smoothSolver:  Solving for k, Initial residual = 0.00294774, Final residual = 0.00016205, No Iterations 3
ExecutionTime = 1.25338 s  ClockTime = 2 s

Time = 25s

smoothSolver:  Solving for Ux, Initial residual = 0.000655252, Final residual = 4.81645e-05, No Iterations 5
smoothSolver:  Solving for Uy, Initial residual = 0.00146986, Final residual = 6.98164e-05, No Iterations 3
GAMG:  Solving for p, Initial residual = 0.0411964, Final residual = 0.00367763, No Iterations 10
time step continuity errors : sum local = 5.25283e-05, global = -1.27823e-05, cumulative = 0.000345935
--> FOAM Warning : 
    From function Foam::tmp<Foam::DimensionedField<double, Foam::volMesh> > Foam::RASModels::kOmegaSSTLM<BasicMomentumTransportModel>::ReThetat0(const Internal&, const Internal&, const Internal&) const [with BasicMomentumTransportModel = Foam::incompressibleMomentumTransportModel; Foam::GeometricField<double, Foam::volMesh, Foam::Field>::Internal = Foam::DimensionedField<double, Foam::volMesh>]
    in file ../momentumTransportModels/lnInclude/kOmegaSSTLM.C at line 300
    Number of lambda iterations exceeds maxLambdaIter(10)
smoothSolver:  Solving for ReThetat, Initial residual = 0.00528498, Final residual = 0.000336612, No Iterations 3
smoothSolver:  Solving for gammaInt, Initial residual = 0.000751111, Final residual = 2.7021e-05, No Iterations 3
smoothSolver:  Solving for omega, Initial residual = 3.78119e-06, Final residual = 3.39843e-07, No Iterations 2
smoothSolver:  Solving for k, Initial residual = 0.00264277, Final residual = 0.000144653, No Iterations 3
ExecutionTime = 1.30088 s  ClockTime = 2 s

Time = 26s

smoothSolver:  Solving for Ux, Initial residual = 0.000618229, Final residual = 4.51754e-05, No Iterations 5
smoothSolver:  Solving for Uy, Initial residual = 0.00137509, Final residual = 0.000136089, No Iterations 2
GAMG:  Solving for p, Initial residual = 0.0177787, Final residual = 0.00150274, No Iterations 10
time step continuity errors : sum local = 4.6491e-05, global = -1.12317e-05, cumulative = 0.000334703
--> FOAM Warning : 
    From function Foam::tmp<Foam::DimensionedField<double, Foam::volMesh> > Foam::RASModels::kOmegaSSTLM<BasicMomentumTransportModel>::ReThetat0(const Internal&, const Internal&, const Internal&) const [with BasicMomentumTransportModel = Foam::incompressibleMomentumTransportModel; Foam::GeometricField<double, Foam::volMesh, Foam::Field>::Internal = Foam::DimensionedField<double, Foam::volMesh>]
    in file ../momentumTransportModels/lnInclude/kOmegaSSTLM.C at line 300
    Number of lambda iterations exceeds maxLambdaIter(10)
smoothSolver:  Solving for ReThetat, Initial residual = 0.00490174, Final residual = 0.000302758, No Iterations 3
smoothSolver:  Solving for gammaInt, Initial residual = 0.00067325, Final residual = 2.56059e-05, No Iterations 3
smoothSolver:  Solving for omega, Initial residual = 3.6261e-06, Final residual = 3.20355e-07, No Iterations 2
smoothSolver:  Solving for k, Initial residual = 0.00238743, Final residual = 0.00013059, No Iterations 3
ExecutionTime = 1.34635 s  ClockTime = 2 s

Time = 27s

smoothSolver:  Solving for Ux, Initial residual = 0.000583182, Final residual = 4.20765e-05, No Iterations 5
smoothSolver:  Solving for Uy, Initial residual = 0.00129162, Final residual = 0.000129028, No Iterations 2
GAMG:  Solving for p, Initial residual = 0.011348, Final residual = 0.00106134, No Iterations 10
time step continuity errors : sum local = 4.82623e-05, global = -1.20889e-05, cumulative = 0.000322615
--> FOAM Warning : 
    From function Foam::tmp<Foam::DimensionedField<double, Foam::volMesh> > Foam::RASModels::kOmegaSSTLM<BasicMomentumTransportModel>::ReThetat0(const Internal&, const Internal&, const Internal&) const [with BasicMomentumTransportModel = Foam::incompressibleMomentumTransportModel; Foam::GeometricField<double, Foam::volMesh, Foam::Field>::Internal = Foam::DimensionedField<double, Foam::volMesh>]
    in file ../momentumTransportModels/lnInclude/kOmegaSSTLM.C at line 300
    Number of lambda iterations exceeds maxLambdaIter(10)
smoothSolver:  Solving for ReThetat, Initial residual = 0.00458369, Final residual = 0.000274868, No Iterations 3
smoothSolver:  Solving for gammaInt, Initial residual = 0.000604873, Final residual = 2.4058e-05, No Iterations 3
smoothSolver:  Solving for omega, Initial residual = 3.30547e-06, Final residual = 3.01379e-07, No Iterations 2
smoothSolver:  Solving for k, Initial residual = 0.00217319, Final residual = 0.000118738, No Iterations 3
ExecutionTime = 1.39069 s  ClockTime = 2 s

Time = 28s

smoothSolver:  Solving for Ux, Initial residual = 0.000550169, Final residual = 3.95605e-05, No Iterations 5
smoothSolver:  Solving for Uy, Initial residual = 0.00121206, Final residual = 5.99287e-05, No Iterations 3
GAMG:  Solving for p, Initial residual = 0.009277, Final residual = 0.000741937, No Iterations 10
time step continuity errors : sum local = 4.44624e-05, global = -1.2729e-05, cumulative = 0.000309886
--> FOAM Warning : 
    From function Foam::tmp<Foam::DimensionedField<double, Foam::volMesh> > Foam::RASModels::kOmegaSSTLM<BasicMomentumTransportModel>::ReThetat0(const Internal&, const Internal&, const Internal&) const [with BasicMomentumTransportModel = Foam::incompressibleMomentumTransportModel; Foam::GeometricField<double, Foam::volMesh, Foam::Field>::Internal = Foam::DimensionedField<double, Foam::volMesh>]
    in file ../momentumTransportModels/lnInclude/kOmegaSSTLM.C at line 300
    Number of lambda iterations exceeds maxLambdaIter(10)
smoothSolver:  Solving for ReThetat, Initial residual = 0.00423396, Final residual = 0.000244664, No Iterations 3
smoothSolver:  Solving for gammaInt, Initial residual = 0.000550244, Final residual = 2.2697e-05, No Iterations 3
smoothSolver:  Solving for omega, Initial residual = 3.1227e-06, Final residual = 2.84206e-07, No Iterations 2
smoothSolver:  Solving for k, Initial residual = 0.00199006, Final residual = 0.00010815, No Iterations 3
ExecutionTime = 1.43724 s  ClockTime = 2 s

Time = 29s

smoothSolver:  Solving for Ux, Initial residual = 0.000521002, Final residual = 3.69691e-05, No Iterations 5
smoothSolver:  Solving for Uy, Initial residual = 0.00111606, Final residual = 5.79341e-05, No Iterations 3
GAMG:  Solving for p, Initial residual = 0.00641659, Final residual = 0.000595869, No Iterations 10
time step continuity errors : sum local = 4.39277e-05, global = -1.19204e-05, cumulative = 0.000297965
--> FOAM Warning : 
    From function Foam::tmp<Foam::DimensionedField<double, Foam::volMesh> > Foam::RASModels::kOmegaSSTLM<BasicMomentumTransportModel>::ReThetat0(const Internal&, const Internal&, const Internal&) const [with BasicMomentumTransportModel = Foam::incompressibleMomentumTransportModel; Foam::GeometricField<double, Foam::volMesh, Foam::Field>::Internal = Foam::DimensionedField<double, Foam::volMesh>]
    in file ../momentumTransportModels/lnInclude/kOmegaSSTLM.C at line 300
    Number of lambda iterations exceeds maxLambdaIter(10)
smoothSolver:  Solving for ReThetat, Initial residual = 0.00395009, Final residual = 0.000219788, No Iterations 3
smoothSolver:  Solving for gammaInt, Initial residual = 0.000500649, Final residual = 2.16689e-05, No Iterations 3
smoothSolver:  Solving for omega, Initial residual = 2.89147e-06, Final residual = 2.67897e-07, No Iterations 2
smoothSolver:  Solving for k, Initial residual = 0.00183078, Final residual = 9.86431e-05, No Iterations 3
ExecutionTime = 1.48312 s  ClockTime = 2 s

Time = 30s

smoothSolver:  Solving for Ux, Initial residual = 0.000492574, Final residual = 3.48182e-05, No Iterations 5
smoothSolver:  Solving for Uy, Initial residual = 0.00103874, Final residual = 5.74525e-05, No Iterations 3
GAMG:  Solving for p, Initial residual = 0.00495775, Final residual = 0.000441155, No Iterations 10
time step continuity errors : sum local = 3.82283e-05, global = -1.04983e-05, cumulative = 0.000287467
--> FOAM Warning : 
    From function Foam::tmp<Foam::DimensionedField<double, Foam::volMesh> > Foam::RASModels::kOmegaSSTLM<BasicMomentumTransportModel>::ReThetat0(const Internal&, const Internal&, const Internal&) const [with BasicMomentumTransportModel = Foam::incompressibleMomentumTransportModel; Foam::GeometricField<double, Foam::volMesh, Foam::Field>::Internal = Foam::DimensionedField<double, Foam::volMesh>]
    in file ../momentumTransportModels/lnInclude/kOmegaSSTLM.C at line 300
    Number of lambda iterations exceeds maxLambdaIter(10)
smoothSolver:  Solving for ReThetat, Initial residual = 0.00364296, Final residual = 0.000194929, No Iterations 3
smoothSolver:  Solving for gammaInt, Initial residual = 0.000451724, Final residual = 2.06236e-05, No Iterations 3
smoothSolver:  Solving for omega, Initial residual = 2.71807e-06, Final residual = 2.52751e-07, No Iterations 2
smoothSolver:  Solving for k, Initial residual = 0.00169167, Final residual = 9.01672e-05, No Iterations 3
ExecutionTime = 1.52824 s  ClockTime = 2 s

Time = 31s

smoothSolver:  Solving for Ux, Initial residual = 0.000465456, Final residual = 3.25922e-05, No Iterations 5
smoothSolver:  Solving for Uy, Initial residual = 0.00096275, Final residual = 5.77002e-05, No Iterations 3
GAMG:  Solving for p, Initial residual = 0.00411851, Final residual = 0.000379258, No Iterations 10
time step continuity errors : sum local = 3.70516e-05, global = -9.45142e-06, cumulative = 0.000278015
--> FOAM Warning : 
    From function Foam::tmp<Foam::DimensionedField<double, Foam::volMesh> > Foam::RASModels::kOmegaSSTLM<BasicMomentumTransportModel>::ReThetat0(const Internal&, const Internal&, const Internal&) const [with BasicMomentumTransportModel = Foam::incompressibleMomentumTransportModel; Foam::GeometricField<double, Foam::volMesh, Foam::Field>::Internal = Foam::DimensionedField<double, Foam::volMesh>]
    in file ../momentumTransportModels/lnInclude/kOmegaSSTLM.C at line 300
    Number of lambda iterations exceeds maxLambdaIter(10)
smoothSolver:  Solving for ReThetat, Initial residual = 0.00339908, Final residual = 0.000174176, No Iterations 3
smoothSolver:  Solving for gammaInt, Initial residual = 0.000408059, Final residual = 1.94787e-05, No Iterations 3
smoothSolver:  Solving for omega, Initial residual = 2.53593e-06, Final residual = 2.38468e-07, No Iterations 2
smoothSolver:  Solving for k, Initial residual = 0.00156987, Final residual = 8.27461e-05, No Iterations 3
ExecutionTime = 1.57473 s  ClockTime = 2 s

Time = 32s

smoothSolver:  Solving for Ux, Initial residual = 0.000439222, Final residual = 3.07117e-05, No Iterations 5
smoothSolver:  Solving for Uy, Initial residual = 0.000896303, Final residual = 5.83553e-05, No Iterations 3
GAMG:  Solving for p, Initial residual = 0.00347963, Final residual = 0.000299107, No Iterations 10
time step continuity errors : sum local = 3.22223e-05, global = -8.07865e-06, cumulative = 0.000269937
--> FOAM Warning : 
    From function Foam::tmp<Foam::DimensionedField<double, Foam::volMesh> > Foam::RASModels::kOmegaSSTLM<BasicMomentumTransportModel>::ReThetat0(const Internal&, const Internal&, const Internal&) const [with BasicMomentumTransportModel = Foam::incompressibleMomentumTransportModel; Foam::GeometricField<double, Foam::volMesh, Foam::Field>::Internal = Foam::DimensionedField<double, Foam::volMesh>]
    in file ../momentumTransportModels/lnInclude/kOmegaSSTLM.C at line 300
    Number of lambda iterations exceeds maxLambdaIter(10)
smoothSolver:  Solving for ReThetat, Initial residual = 0.00313716, Final residual = 0.000309173, No Iterations 2
smoothSolver:  Solving for gammaInt, Initial residual = 0.000369942, Final residual = 1.82566e-05, No Iterations 3
smoothSolver:  Solving for omega, Initial residual = 2.3816e-06, Final residual = 2.25165e-07, No Iterations 2
smoothSolver:  Solving for k, Initial residual = 0.00146159, Final residual = 7.63014e-05, No Iterations 3
ExecutionTime = 1.6214 s  ClockTime = 2 s

Time = 33s

smoothSolver:  Solving for Ux, Initial residual = 0.00041458, Final residual = 2.88112e-05, No Iterations 5
smoothSolver:  Solving for Uy, Initial residual = 0.000831587, Final residual = 5.8871e-05, No Iterations 3
GAMG:  Solving for p, Initial residual = 0.0030056, Final residual = 0.000260304, No Iterations 10
time step continuity errors : sum local = 3.01978e-05, global = -6.8084e-06, cumulative = 0.000263128
--> FOAM Warning : 
    From function Foam::tmp<Foam::DimensionedField<double, Foam::volMesh> > Foam::RASModels::kOmegaSSTLM<BasicMomentumTransportModel>::ReThetat0(const Internal&, const Internal&, const Internal&) const [with BasicMomentumTransportModel = Foam::incompressibleMomentumTransportModel; Foam::GeometricField<double, Foam::volMesh, Foam::Field>::Internal = Foam::DimensionedField<double, Foam::volMesh>]
    in file ../momentumTransportModels/lnInclude/kOmegaSSTLM.C at line 300
    Number of lambda iterations exceeds maxLambdaIter(10)
smoothSolver:  Solving for ReThetat, Initial residual = 0.00296362, Final residual = 0.000284316, No Iterations 2
smoothSolver:  Solving for gammaInt, Initial residual = 0.000336923, Final residual = 1.69443e-05, No Iterations 3
smoothSolver:  Solving for omega, Initial residual = 2.23051e-06, Final residual = 2.12659e-07, No Iterations 2
smoothSolver:  Solving for k, Initial residual = 0.00136523, Final residual = 7.07439e-05, No Iterations 3
ExecutionTime = 1.66988 s  ClockTime = 2 s

Time = 34s

smoothSolver:  Solving for Ux, Initial residual = 0.00039068, Final residual = 2.71755e-05, No Iterations 5
smoothSolver:  Solving for Uy, Initial residual = 0.000774661, Final residual = 5.90725e-05, No Iterations 3
GAMG:  Solving for p, Initial residual = 0.00262477, Final residual = 0.000208724, No Iterations 10
time step continuity errors : sum local = 2.57356e-05, global = -5.4579e-06, cumulative = 0.000257671
--> FOAM Warning : 
    From function Foam::tmp<Foam::DimensionedField<double, Foam::volMesh> > Foam::RASModels::kOmegaSSTLM<BasicMomentumTransportModel>::ReThetat0(const Internal&, const Internal&, const Internal&) const [with BasicMomentumTransportModel = Foam::incompressibleMomentumTransportModel; Foam::GeometricField<double, Foam::volMesh, Foam::Field>::Internal = Foam::DimensionedField<double, Foam::volMesh>]
    in file ../momentumTransportModels/lnInclude/kOmegaSSTLM.C at line 300
    Number of lambda iterations exceeds maxLambdaIter(10)
smoothSolver:  Solving for ReThetat, Initial residual = 0.00277034, Final residual = 0.000264077, No Iterations 2
smoothSolver:  Solving for gammaInt, Initial residual = 0.000308379, Final residual = 1.56914e-05, No Iterations 3
smoothSolver:  Solving for omega, Initial residual = 2.0962e-06, Final residual = 2.00985e-07, No Iterations 2
smoothSolver:  Solving for k, Initial residual = 0.00127816, Final residual = 6.59047e-05, No Iterations 3
ExecutionTime = 1.71628 s  ClockTime = 2 s

Time = 35s

smoothSolver:  Solving for Ux, Initial residual = 0.000368478, Final residual = 2.55547e-05, No Iterations 5
smoothSolver:  Solving for Uy, Initial residual = 0.000723962, Final residual = 5.85129e-05, No Iterations 3
GAMG:  Solving for p, Initial residual = 0.00231337, Final residual = 0.000175663, No Iterations 10
time step continuity errors : sum local = 2.26598e-05, global = -4.59885e-06, cumulative = 0.000253072
--> FOAM Warning : 
    From function Foam::tmp<Foam::DimensionedField<double, Foam::volMesh> > Foam::RASModels::kOmegaSSTLM<BasicMomentumTransportModel>::ReThetat0(const Internal&, const Internal&, const Internal&) const [with BasicMomentumTransportModel = Foam::incompressibleMomentumTransportModel; Foam::GeometricField<double, Foam::volMesh, Foam::Field>::Internal = Foam::DimensionedField<double, Foam::volMesh>]
    in file ../momentumTransportModels/lnInclude/kOmegaSSTLM.C at line 300
    Number of lambda iterations exceeds maxLambdaIter(10)
smoothSolver:  Solving for ReThetat, Initial residual = 0.00262828, Final residual = 0.000243559, No Iterations 2
smoothSolver:  Solving for gammaInt, Initial residual = 0.000279841, Final residual = 1.43905e-05, No Iterations 3
smoothSolver:  Solving for omega, Initial residual = 1.96838e-06, Final residual = 1.90029e-07, No Iterations 2
smoothSolver:  Solving for k, Initial residual = 0.00119884, Final residual = 6.15477e-05, No Iterations 3
ExecutionTime = 1.76072 s  ClockTime = 2 s

Time = 36s

smoothSolver:  Solving for Ux, Initial residual = 0.000347236, Final residual = 2.41396e-05, No Iterations 5
smoothSolver:  Solving for Uy, Initial residual = 0.000679157, Final residual = 5.70794e-05, No Iterations 3
GAMG:  Solving for p, Initial residual = 0.00207427, Final residual = 0.000197931, No Iterations 8
time step continuity errors : sum local = 2.6473e-05, global = -5.24452e-06, cumulative = 0.000247827
--> FOAM Warning : 
    From function Foam::tmp<Foam::DimensionedField<double, Foam::volMesh> > Foam::RASModels::kOmegaSSTLM<BasicMomentumTransportModel>::ReThetat0(const Internal&, const Internal&, const Internal&) const [with BasicMomentumTransportModel = Foam::incompressibleMomentumTransportModel; Foam::GeometricField<double, Foam::volMesh, Foam::Field>::Internal = Foam::DimensionedField<double, Foam::volMesh>]
    in file ../momentumTransportModels/lnInclude/kOmegaSSTLM.C at line 300
    Number of lambda iterations exceeds maxLambdaIter(10)
smoothSolver:  Solving for ReThetat, Initial residual = 0.0024633, Final residual = 0.000228446, No Iterations 2
smoothSolver:  Solving for gammaInt, Initial residual = 0.00025546, Final residual = 1.31839e-05, No Iterations 3
smoothSolver:  Solving for omega, Initial residual = 1.85139e-06, Final residual = 1.79753e-07, No Iterations 2
smoothSolver:  Solving for k, Initial residual = 0.00112576, Final residual = 5.73503e-05, No Iterations 3
ExecutionTime = 1.80247 s  ClockTime = 2 s

Time = 37s

smoothSolver:  Solving for Ux, Initial residual = 0.000327242, Final residual = 2.27503e-05, No Iterations 5
smoothSolver:  Solving for Uy, Initial residual = 0.00064178, Final residual = 5.46169e-05, No Iterations 3
GAMG:  Solving for p, Initial residual = 0.00186012, Final residual = 0.000184454, No Iterations 8
time step continuity errors : sum local = 2.52251e-05, global = -4.77294e-06, cumulative = 0.000243054
--> FOAM Warning : 
    From function Foam::tmp<Foam::DimensionedField<double, Foam::volMesh> > Foam::RASModels::kOmegaSSTLM<BasicMomentumTransportModel>::ReThetat0(const Internal&, const Internal&, const Internal&) const [with BasicMomentumTransportModel = Foam::incompressibleMomentumTransportModel; Foam::GeometricField<double, Foam::volMesh, Foam::Field>::Internal = Foam::DimensionedField<double, Foam::volMesh>]
    in file ../momentumTransportModels/lnInclude/kOmegaSSTLM.C at line 300
    Number of lambda iterations exceeds maxLambdaIter(10)
smoothSolver:  Solving for ReThetat, Initial residual = 0.00234322, Final residual = 0.000212491, No Iterations 2
smoothSolver:  Solving for gammaInt, Initial residual = 0.000234229, Final residual = 1.20398e-05, No Iterations 3
smoothSolver:  Solving for omega, Initial residual = 1.74208e-06, Final residual = 1.70115e-07, No Iterations 2
smoothSolver:  Solving for k, Initial residual = 0.0010569, Final residual = 5.31477e-05, No Iterations 3
ExecutionTime = 1.8472 s  ClockTime = 2 s

Time = 38s

smoothSolver:  Solving for Ux, Initial residual = 0.000307823, Final residual = 2.1517e-05, No Iterations 5
smoothSolver:  Solving for Uy, Initial residual = 0.000607419, Final residual = 5.13988e-05, No Iterations 3
GAMG:  Solving for p, Initial residual = 0.00168258, Final residual = 0.000127091, No Iterations 10
time step continuity errors : sum local = 1.76997e-05, global = -3.40503e-06, cumulative = 0.000239649
--> FOAM Warning : 
    From function Foam::tmp<Foam::DimensionedField<double, Foam::volMesh> > Foam::RASModels::kOmegaSSTLM<BasicMomentumTransportModel>::ReThetat0(const Internal&, const Internal&, const Internal&) const [with BasicMomentumTransportModel = Foam::incompressibleMomentumTransportModel; Foam::GeometricField<double, Foam::volMesh, Foam::Field>::Internal = Foam::DimensionedField<double, Foam::volMesh>]
    in file ../momentumTransportModels/lnInclude/kOmegaSSTLM.C at line 300
    Number of lambda iterations exceeds maxLambdaIter(10)
smoothSolver:  Solving for ReThetat, Initial residual = 0.00220404, Final residual = 0.000200521, No Iterations 2
smoothSolver:  Solving for gammaInt, Initial residual = 0.000215764, Final residual = 1.1005e-05, No Iterations 3
smoothSolver:  Solving for omega, Initial residual = 1.64044e-06, Final residual = 1.61087e-07, No Iterations 2
smoothSolver:  Solving for k, Initial residual = 0.000989987, Final residual = 9.85608e-05, No Iterations 2
ExecutionTime = 1.89286 s  ClockTime = 2 s

Time = 39s

smoothSolver:  Solving for Ux, Initial residual = 0.00029114, Final residual = 2.03337e-05, No Iterations 5
smoothSolver:  Solving for Uy, Initial residual = 0.00058295, Final residual = 4.75977e-05, No Iterations 3
GAMG:  Solving for p, Initial residual = 0.00153239, Final residual = 0.000149809, No Iterations 8
time step continuity errors : sum local = 2.11119e-05, global = -4.29198e-06, cumulative = 0.000235357
--> FOAM Warning : 
    From function Foam::tmp<Foam::DimensionedField<double, Foam::volMesh> > Foam::RASModels::kOmegaSSTLM<BasicMomentumTransportModel>::ReThetat0(const Internal&, const Internal&, const Internal&) const [with BasicMomentumTransportModel = Foam::incompressibleMomentumTransportModel; Foam::GeometricField<double, Foam::volMesh, Foam::Field>::Internal = Foam::DimensionedField<double, Foam::volMesh>]
    in file ../momentumTransportModels/lnInclude/kOmegaSSTLM.C at line 300
    Number of lambda iterations exceeds maxLambdaIter(10)
smoothSolver:  Solving for ReThetat, Initial residual = 0.00208238, Final residual = 0.000186558, No Iterations 2
smoothSolver:  Solving for gammaInt, Initial residual = 0.000197677, Final residual = 9.98122e-06, No Iterations 3
smoothSolver:  Solving for omega, Initial residual = 1.54538e-06, Final residual = 1.52576e-07, No Iterations 2
smoothSolver:  Solving for k, Initial residual = 0.000932074, Final residual = 9.3171e-05, No Iterations 2
ExecutionTime = 1.9358 s  ClockTime = 2 s

Time = 40s

smoothSolver:  Solving for Ux, Initial residual = 0.000275253, Final residual = 1.92792e-05, No Iterations 5
smoothSolver:  Solving for Uy, Initial residual = 0.000555396, Final residual = 4.32719e-05, No Iterations 3
GAMG:  Solving for p, Initial residual = 0.00145062, Final residual = 0.000122701, No Iterations 10
time step continuity errors : sum local = 1.73491e-05, global = -3.82321e-06, cumulative = 0.000231534
--> FOAM Warning : 
    From function Foam::tmp<Foam::DimensionedField<double, Foam::volMesh> > Foam::RASModels::kOmegaSSTLM<BasicMomentumTransportModel>::ReThetat0(const Internal&, const Internal&, const Internal&) const [with BasicMomentumTransportModel = Foam::incompressibleMomentumTransportModel; Foam::GeometricField<double, Foam::volMesh, Foam::Field>::Internal = Foam::DimensionedField<double, Foam::volMesh>]
    in file ../momentumTransportModels/lnInclude/kOmegaSSTLM.C at line 300
    Number of lambda iterations exceeds maxLambdaIter(10)
smoothSolver:  Solving for ReThetat, Initial residual = 0.00196328, Final residual = 0.000175561, No Iterations 2
smoothSolver:  Solving for gammaInt, Initial residual = 0.000184028, Final residual = 9.15748e-06, No Iterations 3
smoothSolver:  Solving for omega, Initial residual = 1.4579e-06, Final residual = 1.4464e-07, No Iterations 2
smoothSolver:  Solving for k, Initial residual = 0.000873297, Final residual = 4.30469e-05, No Iterations 3
ExecutionTime = 1.98128 s  ClockTime = 2 s

Time = 41s

smoothSolver:  Solving for Ux, Initial residual = 0.000262057, Final residual = 1.82665e-05, No Iterations 5
smoothSolver:  Solving for Uy, Initial residual = 0.000532029, Final residual = 3.86817e-05, No Iterations 3
GAMG:  Solving for p, Initial residual = 0.00135757, Final residual = 0.000110513, No Iterations 10
time step continuity errors : sum local = 1.55934e-05, global = -3.8456e-06, cumulative = 0.000227688
--> FOAM Warning : 
    From function Foam::tmp<Foam::DimensionedField<double, Foam::volMesh> > Foam::RASModels::kOmegaSSTLM<BasicMomentumTransportModel>::ReThetat0(const Internal&, const Internal&, const Internal&) const [with BasicMomentumTransportModel = Foam::incompressibleMomentumTransportModel; Foam::GeometricField<double, Foam::volMesh, Foam::Field>::Internal = Foam::DimensionedField<double, Foam::volMesh>]
    in file ../momentumTransportModels/lnInclude/kOmegaSSTLM.C at line 300
    Number of lambda iterations exceeds maxLambdaIter(10)
smoothSolver:  Solving for ReThetat, Initial residual = 0.00188606, Final residual = 0.000163506, No Iterations 2
smoothSolver:  Solving for gammaInt, Initial residual = 0.000172832, Final residual = 8.47604e-06, No Iterations 3
smoothSolver:  Solving for omega, Initial residual = 1.3768e-06, Final residual = 1.3727e-07, No Iterations 2
smoothSolver:  Solving for k, Initial residual = 0.000806647, Final residual = 8.06482e-05, No Iterations 2
ExecutionTime = 2.02741 s  ClockTime = 2 s

Time = 42s

smoothSolver:  Solving for Ux, Initial residual = 0.000249415, Final residual = 1.73655e-05, No Iterations 5
smoothSolver:  Solving for Uy, Initial residual = 0.000506453, Final residual = 3.40627e-05, No Iterations 3
GAMG:  Solving for p, Initial residual = 0.00129929, Final residual = 0.000111321, No Iterations 10
time step continuity errors : sum local = 1.56211e-05, global = -4.05731e-06, cumulative = 0.000223631
--> FOAM Warning : 
    From function Foam::tmp<Foam::DimensionedField<double, Foam::volMesh> > Foam::RASModels::kOmegaSSTLM<BasicMomentumTransportModel>::ReThetat0(const Internal&, const Internal&, const Internal&) const [with BasicMomentumTransportModel = Foam::incompressibleMomentumTransportModel; Foam::GeometricField<double, Foam::volMesh, Foam::Field>::Internal = Foam::DimensionedField<double, Foam::volMesh>]
    in file ../momentumTransportModels/lnInclude/kOmegaSSTLM.C at line 300
    Number of lambda iterations exceeds maxLambdaIter(10)
smoothSolver:  Solving for ReThetat, Initial residual = 0.00177951, Final residual = 0.000153337, No Iterations 2
smoothSolver:  Solving for gammaInt, Initial residual = 0.000160631, Final residual = 7.93461e-06, No Iterations 3
smoothSolver:  Solving for omega, Initial residual = 1.30158e-06, Final residual = 4.60399e-08, No Iterations 3
smoothSolver:  Solving for k, Initial residual = 0.000749789, Final residual = 3.69567e-05, No Iterations 3
ExecutionTime = 2.0736 s  ClockTime = 2 s

Time = 43s

smoothSolver:  Solving for Ux, Initial residual = 0.000238895, Final residual = 1.65121e-05, No Iterations 5
smoothSolver:  Solving for Uy, Initial residual = 0.000483595, Final residual = 2.96616e-05, No Iterations 3
GAMG:  Solving for p, Initial residual = 0.00123673, Final residual = 0.000112733, No Iterations 10
time step continuity errors : sum local = 1.56819e-05, global = -4.11237e-06, cumulative = 0.000219519
--> FOAM Warning : 
    From function Foam::tmp<Foam::DimensionedField<double, Foam::volMesh> > Foam::RASModels::kOmegaSSTLM<BasicMomentumTransportModel>::ReThetat0(const Internal&, const Internal&, const Internal&) const [with BasicMomentumTransportModel = Foam::incompressibleMomentumTransportModel; Foam::GeometricField<double, Foam::volMesh, Foam::Field>::Internal = Foam::DimensionedField<double, Foam::volMesh>]
    in file ../momentumTransportModels/lnInclude/kOmegaSSTLM.C at line 300
    Number of lambda iterations exceeds maxLambdaIter(10)
smoothSolver:  Solving for ReThetat, Initial residual = 0.00169797, Final residual = 0.000142498, No Iterations 2
smoothSolver:  Solving for gammaInt, Initial residual = 0.000155493, Final residual = 7.74408e-06, No Iterations 3
smoothSolver:  Solving for omega, Initial residual = 1.13586e-06, Final residual = 1.12302e-07, No Iterations 2
smoothSolver:  Solving for k, Initial residual = 0.000687017, Final residual = 3.41158e-05, No Iterations 3
ExecutionTime = 2.11816 s  ClockTime = 2 s

Time = 44s

smoothSolver:  Solving for Ux, Initial residual = 0.000228606, Final residual = 1.57415e-05, No Iterations 5
smoothSolver:  Solving for Uy, Initial residual = 0.000459703, Final residual = 2.60381e-05, No Iterations 3
GAMG:  Solving for p, Initial residual = 0.00118948, Final residual = 0.000118867, No Iterations 10
time step continuity errors : sum local = 1.63776e-05, global = -3.99019e-06, cumulative = 0.000215528
--> FOAM Warning : 
    From function Foam::tmp<Foam::DimensionedField<double, Foam::volMesh> > Foam::RASModels::kOmegaSSTLM<BasicMomentumTransportModel>::ReThetat0(const Internal&, const Internal&, const Internal&) const [with BasicMomentumTransportModel = Foam::incompressibleMomentumTransportModel; Foam::GeometricField<double, Foam::volMesh, Foam::Field>::Internal = Foam::DimensionedField<double, Foam::volMesh>]
    in file ../momentumTransportModels/lnInclude/kOmegaSSTLM.C at line 300
    Number of lambda iterations exceeds maxLambdaIter(10)
smoothSolver:  Solving for ReThetat, Initial residual = 0.00159061, Final residual = 0.000134458, No Iterations 2
smoothSolver:  Solving for gammaInt, Initial residual = 0.000142188, Final residual = 7.22008e-06, No Iterations 3
smoothSolver:  Solving for omega, Initial residual = 1.17266e-06, Final residual = 4.16676e-08, No Iterations 3
smoothSolver:  Solving for k, Initial residual = 0.000628481, Final residual = 3.18198e-05, No Iterations 3
ExecutionTime = 2.16468 s  ClockTime = 2 s

Time = 45s

smoothSolver:  Solving for Ux, Initial residual = 0.000219698, Final residual = 1.5019e-05, No Iterations 5
smoothSolver:  Solving for Uy, Initial residual = 0.00043816, Final residual = 2.34432e-05, No Iterations 3
GAMG:  Solving for p, Initial residual = 0.00113433, Final residual = 8.7974e-05, No Iterations 12
time step continuity errors : sum local = 1.19923e-05, global = -2.35759e-06, cumulative = 0.000213171
--> FOAM Warning : 
    From function Foam::tmp<Foam::DimensionedField<double, Foam::volMesh> > Foam::RASModels::kOmegaSSTLM<BasicMomentumTransportModel>::ReThetat0(const Internal&, const Internal&, const Internal&) const [with BasicMomentumTransportModel = Foam::incompressibleMomentumTransportModel; Foam::GeometricField<double, Foam::volMesh, Foam::Field>::Internal = Foam::DimensionedField<double, Foam::volMesh>]
    in file ../momentumTransportModels/lnInclude/kOmegaSSTLM.C at line 300
    Number of lambda iterations exceeds maxLambdaIter(10)
smoothSolver:  Solving for ReThetat, Initial residual = 0.00150365, Final residual = 0.000125313, No Iterations 2
smoothSolver:  Solving for gammaInt, Initial residual = 0.000135602, Final residual = 7.02389e-06, No Iterations 3
smoothSolver:  Solving for omega, Initial residual = 1.01816e-06, Final residual = 1.01392e-07, No Iterations 2
smoothSolver:  Solving for k, Initial residual = 0.000574549, Final residual = 2.9931e-05, No Iterations 3
ExecutionTime = 2.21158 s  ClockTime = 3 s

Time = 46s

smoothSolver:  Solving for Ux, Initial residual = 0.000210632, Final residual = 1.43288e-05, No Iterations 5
smoothSolver:  Solving for Uy, Initial residual = 0.000417111, Final residual = 2.17075e-05, No Iterations 3
GAMG:  Solving for p, Initial residual = 0.0010878, Final residual = 0.000104935, No Iterations 10
time step continuity errors : sum local = 1.41531e-05, global = -3.26968e-06, cumulative = 0.000209901
--> FOAM Warning : 
    From function Foam::tmp<Foam::DimensionedField<double, Foam::volMesh> > Foam::RASModels::kOmegaSSTLM<BasicMomentumTransportModel>::ReThetat0(const Internal&, const Internal&, const Internal&) const [with BasicMomentumTransportModel = Foam::incompressibleMomentumTransportModel; Foam::GeometricField<double, Foam::volMesh, Foam::Field>::Internal = Foam::DimensionedField<double, Foam::volMesh>]
    in file ../momentumTransportModels/lnInclude/kOmegaSSTLM.C at line 300
    Number of lambda iterations exceeds maxLambdaIter(10)
smoothSolver:  Solving for ReThetat, Initial residual = 0.00139595, Final residual = 0.000119086, No Iterations 2
smoothSolver:  Solving for gammaInt, Initial residual = 0.000122792, Final residual = 6.53664e-06, No Iterations 3
smoothSolver:  Solving for omega, Initial residual = 1.05801e-06, Final residual = 3.79085e-08, No Iterations 3
smoothSolver:  Solving for k, Initial residual = 0.000525447, Final residual = 2.80285e-05, No Iterations 3
ExecutionTime = 2.25605 s  ClockTime = 3 s

Time = 47s

smoothSolver:  Solving for Ux, Initial residual = 0.000202085, Final residual = 1.36642e-05, No Iterations 5
smoothSolver:  Solving for Uy, Initial residual = 0.000395978, Final residual = 2.0579e-05, No Iterations 3
GAMG:  Solving for p, Initial residual = 0.00104572, Final residual = 8.04305e-05, No Iterations 12
time step continuity errors : sum local = 1.07441e-05, global = -1.86089e-06, cumulative = 0.00020804
--> FOAM Warning : 
    From function Foam::tmp<Foam::DimensionedField<double, Foam::volMesh> > Foam::RASModels::kOmegaSSTLM<BasicMomentumTransportModel>::ReThetat0(const Internal&, const Internal&, const Internal&) const [with BasicMomentumTransportModel = Foam::incompressibleMomentumTransportModel; Foam::GeometricField<double, Foam::volMesh, Foam::Field>::Internal = Foam::DimensionedField<double, Foam::volMesh>]
    in file ../momentumTransportModels/lnInclude/kOmegaSSTLM.C at line 300
    Number of lambda iterations exceeds maxLambdaIter(10)
smoothSolver:  Solving for ReThetat, Initial residual = 0.00130734, Final residual = 0.000111291, No Iterations 2
smoothSolver:  Solving for gammaInt, Initial residual = 0.000117037, Final residual = 6.34327e-06, No Iterations 3
smoothSolver:  Solving for omega, Initial residual = 9.182e-07, Final residual = 9.17321e-08, No Iterations 2
smoothSolver:  Solving for k, Initial residual = 0.00047871, Final residual = 2.60854e-05, No Iterations 3
ExecutionTime = 2.30478 s  ClockTime = 3 s

Time = 48s

smoothSolver:  Solving for Ux, Initial residual = 0.000193531, Final residual = 1.30334e-05, No Iterations 5
smoothSolver:  Solving for Uy, Initial residual = 0.000376506, Final residual = 2.00436e-05, No Iterations 3
GAMG:  Solving for p, Initial residual = 0.00100517, Final residual = 9.54813e-05, No Iterations 10
time step continuity errors : sum local = 1.2641e-05, global = -2.60922e-06, cumulative = 0.000205431
--> FOAM Warning : 
    From function Foam::tmp<Foam::DimensionedField<double, Foam::volMesh> > Foam::RASModels::kOmegaSSTLM<BasicMomentumTransportModel>::ReThetat0(const Internal&, const Internal&, const Internal&) const [with BasicMomentumTransportModel = Foam::incompressibleMomentumTransportModel; Foam::GeometricField<double, Foam::volMesh, Foam::Field>::Internal = Foam::DimensionedField<double, Foam::volMesh>]
    in file ../momentumTransportModels/lnInclude/kOmegaSSTLM.C at line 300
    Number of lambda iterations exceeds maxLambdaIter(10)
smoothSolver:  Solving for ReThetat, Initial residual = 0.00119741, Final residual = 0.000106258, No Iterations 2
smoothSolver:  Solving for gammaInt, Initial residual = 0.000106594, Final residual = 5.91516e-06, No Iterations 3
smoothSolver:  Solving for omega, Initial residual = 9.55805e-07, Final residual = 3.44866e-08, No Iterations 3
smoothSolver:  Solving for k, Initial residual = 0.00043367, Final residual = 2.40998e-05, No Iterations 3
ExecutionTime = 2.35028 s  ClockTime = 3 s

Time = 49s

smoothSolver:  Solving for Ux, Initial residual = 0.000185326, Final residual = 1.24185e-05, No Iterations 5
smoothSolver:  Solving for Uy, Initial residual = 0.000357184, Final residual = 1.98762e-05, No Iterations 3
GAMG:  Solving for p, Initial residual = 0.000963816, Final residual = 9.47634e-05, No Iterations 10
time step continuity errors : sum local = 1.24556e-05, global = -2.33779e-06, cumulative = 0.000203093
--> FOAM Warning : 
    From function Foam::tmp<Foam::DimensionedField<double, Foam::volMesh> > Foam::RASModels::kOmegaSSTLM<BasicMomentumTransportModel>::ReThetat0(const Internal&, const Internal&, const Internal&) const [with BasicMomentumTransportModel = Foam::incompressibleMomentumTransportModel; Foam::GeometricField<double, Foam::volMesh, Foam::Field>::Internal = Foam::DimensionedField<double, Foam::volMesh>]
    in file ../momentumTransportModels/lnInclude/kOmegaSSTLM.C at line 300
    Number of lambda iterations exceeds maxLambdaIter(10)
smoothSolver:  Solving for ReThetat, Initial residual = 0.00110528, Final residual = 9.91506e-05, No Iterations 2
smoothSolver:  Solving for gammaInt, Initial residual = 0.000102668, Final residual = 5.72487e-06, No Iterations 3
smoothSolver:  Solving for omega, Initial residual = 8.29849e-07, Final residual = 2.98404e-08, No Iterations 3
smoothSolver:  Solving for k, Initial residual = 0.000390296, Final residual = 2.21486e-05, No Iterations 3
ExecutionTime = 2.39466 s  ClockTime = 3 s

Time = 50s

smoothSolver:  Solving for Ux, Initial residual = 0.000177034, Final residual = 1.18346e-05, No Iterations 5
smoothSolver:  Solving for Uy, Initial residual = 0.000338799, Final residual = 2.00026e-05, No Iterations 3
GAMG:  Solving for p, Initial residual = 0.000923461, Final residual = 8.5763e-05, No Iterations 10
time step continuity errors : sum local = 1.12097e-05, global = -2.06385e-06, cumulative = 0.000201029
--> FOAM Warning : 
    From function Foam::tmp<Foam::DimensionedField<double, Foam::volMesh> > Foam::RASModels::kOmegaSSTLM<BasicMomentumTransportModel>::ReThetat0(const Internal&, const Internal&, const Internal&) const [with BasicMomentumTransportModel = Foam::incompressibleMomentumTransportModel; Foam::GeometricField<double, Foam::volMesh, Foam::Field>::Internal = Foam::DimensionedField<double, Foam::volMesh>]
    in file ../momentumTransportModels/lnInclude/kOmegaSSTLM.C at line 300
    Number of lambda iterations exceeds maxLambdaIter(10)
smoothSolver:  Solving for ReThetat, Initial residual = 0.000999847, Final residual = 9.4801e-05, No Iterations 2
smoothSolver:  Solving for gammaInt, Initial residual = 9.54484e-05, Final residual = 5.3986e-06, No Iterations 3
smoothSolver:  Solving for omega, Initial residual = 8.03939e-07, Final residual = 7.94784e-08, No Iterations 2
smoothSolver:  Solving for k, Initial residual = 0.00034972, Final residual = 2.03512e-05, No Iterations 3
ExecutionTime = 2.44069 s  ClockTime = 3 s

Time = 51s

smoothSolver:  Solving for Ux, Initial residual = 0.000169173, Final residual = 1.1266e-05, No Iterations 5
smoothSolver:  Solving for Uy, Initial residual = 0.000322185, Final residual = 2.03076e-05, No Iterations 3
GAMG:  Solving for p, Initial residual = 0.000879753, Final residual = 7.51645e-05, No Iterations 10
time step continuity errors : sum local = 9.78501e-06, global = -1.81642e-06, cumulative = 0.000199213
--> FOAM Warning : 
    From function Foam::tmp<Foam::DimensionedField<double, Foam::volMesh> > Foam::RASModels::kOmegaSSTLM<BasicMomentumTransportModel>::ReThetat0(const Internal&, const Internal&, const Internal&) const [with BasicMomentumTransportModel = Foam::incompressibleMomentumTransportModel; Foam::GeometricField<double, Foam::volMesh, Foam::Field>::Internal = Foam::DimensionedField<double, Foam::volMesh>]
    in file ../momentumTransportModels/lnInclude/kOmegaSSTLM.C at line 300
    Number of lambda iterations exceeds maxLambdaIter(10)
smoothSolver:  Solving for ReThetat, Initial residual = 0.000914145, Final residual = 8.82708e-05, No Iterations 2
smoothSolver:  Solving for gammaInt, Initial residual = 8.79206e-05, Final residual = 5.06093e-06, No Iterations 3
smoothSolver:  Solving for omega, Initial residual = 8.15934e-07, Final residual = 2.98784e-08, No Iterations 3
smoothSolver:  Solving for k, Initial residual = 0.000312501, Final residual = 1.87554e-05, No Iterations 3
ExecutionTime = 2.48655 s  ClockTime = 3 s

Time = 52s

smoothSolver:  Solving for Ux, Initial residual = 0.000161079, Final residual = 1.07232e-05, No Iterations 5
smoothSolver:  Solving for Uy, Initial residual = 0.000306002, Final residual = 2.06507e-05, No Iterations 3
GAMG:  Solving for p, Initial residual = 0.000837264, Final residual = 6.64485e-05, No Iterations 10
time step continuity errors : sum local = 8.63453e-06, global = -1.5843e-06, cumulative = 0.000197629
--> FOAM Warning : 
    From function Foam::tmp<Foam::DimensionedField<double, Foam::volMesh> > Foam::RASModels::kOmegaSSTLM<BasicMomentumTransportModel>::ReThetat0(const Internal&, const Internal&, const Internal&) const [with BasicMomentumTransportModel = Foam::incompressibleMomentumTransportModel; Foam::GeometricField<double, Foam::volMesh, Foam::Field>::Internal = Foam::DimensionedField<double, Foam::volMesh>]
    in file ../momentumTransportModels/lnInclude/kOmegaSSTLM.C at line 300
    Number of lambda iterations exceeds maxLambdaIter(10)
smoothSolver:  Solving for ReThetat, Initial residual = 0.000822541, Final residual = 4.33068e-05, No Iterations 3
smoothSolver:  Solving for gammaInt, Initial residual = 8.36005e-05, Final residual = 4.81429e-06, No Iterations 3
smoothSolver:  Solving for omega, Initial residual = 7.17218e-07, Final residual = 7.14974e-08, No Iterations 2
smoothSolver:  Solving for k, Initial residual = 0.000278832, Final residual = 1.74255e-05, No Iterations 3
ExecutionTime = 2.53111 s  ClockTime = 3 s

Time = 53s

smoothSolver:  Solving for Ux, Initial residual = 0.0001532, Final residual = 1.01993e-05, No Iterations 5
smoothSolver:  Solving for Uy, Initial residual = 0.000290895, Final residual = 2.09084e-05, No Iterations 3
GAMG:  Solving for p, Initial residual = 0.000792822, Final residual = 5.85561e-05, No Iterations 10
time step continuity errors : sum local = 7.60764e-06, global = -1.41004e-06, cumulative = 0.000196219
--> FOAM Warning : 
    From function Foam::tmp<Foam::DimensionedField<double, Foam::volMesh> > Foam::RASModels::kOmegaSSTLM<BasicMomentumTransportModel>::ReThetat0(const Internal&, const Internal&, const Internal&) const [with BasicMomentumTransportModel = Foam::incompressibleMomentumTransportModel; Foam::GeometricField<double, Foam::volMesh, Foam::Field>::Internal = Foam::DimensionedField<double, Foam::volMesh>]
    in file ../momentumTransportModels/lnInclude/kOmegaSSTLM.C at line 300
    Number of lambda iterations exceeds maxLambdaIter(10)
smoothSolver:  Solving for ReThetat, Initial residual = 0.000743406, Final residual = 3.95353e-05, No Iterations 3
smoothSolver:  Solving for gammaInt, Initial residual = 7.80912e-05, Final residual = 4.52896e-06, No Iterations 3
smoothSolver:  Solving for omega, Initial residual = 7.41614e-07, Final residual = 2.7207e-08, No Iterations 3
smoothSolver:  Solving for k, Initial residual = 0.000249652, Final residual = 1.64053e-05, No Iterations 3
ExecutionTime = 2.57769 s  ClockTime = 3 s

Time = 54s

smoothSolver:  Solving for Ux, Initial residual = 0.000145455, Final residual = 9.69806e-06, No Iterations 5
smoothSolver:  Solving for Uy, Initial residual = 0.000277139, Final residual = 2.09954e-05, No Iterations 3
GAMG:  Solving for p, Initial residual = 0.00074838, Final residual = 5.28777e-05, No Iterations 10
time step continuity errors : sum local = 6.88437e-06, global = -1.2618e-06, cumulative = 0.000194957
--> FOAM Warning : 
[...]
    in file ../momentumTransportModels/lnInclude/kOmegaSSTLM.C at line 300
    Number of lambda iterations exceeds maxLambdaIter(10)
smoothSolver:  Solving for ReThetat, Initial residual = 6.88664e-06, Final residual = 5.02539e-07, No Iterations 6
smoothSolver:  Solving for gammaInt, Initial residual = 3.2963e-06, Final residual = 2.65819e-07, No Iterations 1
smoothSolver:  Solving for omega, Initial residual = 2.99984e-08, Final residual = 2.92869e-09, No Iterations 1
smoothSolver:  Solving for k, Initial residual = 7.09863e-06, Final residual = 5.05152e-07, No Iterations 3
ExecutionTime = 8.22789 s  ClockTime = 9 s

Time = 178s

smoothSolver:  Solving for Ux, Initial residual = 4.36214e-07, Final residual = 3.89445e-08, No Iterations 4
smoothSolver:  Solving for Uy, Initial residual = 1.58992e-06, Final residual = 1.53065e-07, No Iterations 2
GAMG:  Solving for p, Initial residual = 9.3779e-06, Final residual = 7.15608e-07, No Iterations 12
time step continuity errors : sum local = 1.21868e-07, global = -1.24141e-08, cumulative = 0.000174223
--> FOAM Warning : 
    From function Foam::tmp<Foam::DimensionedField<double, Foam::volMesh> > Foam::RASModels::kOmegaSSTLM<BasicMomentumTransportModel>::ReThetat0(const Internal&, const Internal&, const Internal&) const [with BasicMomentumTransportModel = Foam::incompressibleMomentumTransportModel; Foam::GeometricField<double, Foam::volMesh, Foam::Field>::Internal = Foam::DimensionedField<double, Foam::volMesh>]
    in file ../momentumTransportModels/lnInclude/kOmegaSSTLM.C at line 300
    Number of lambda iterations exceeds maxLambdaIter(10)
smoothSolver:  Solving for ReThetat, Initial residual = 6.78038e-06, Final residual = 4.99555e-07, No Iterations 6
smoothSolver:  Solving for gammaInt, Initial residual = 3.15432e-06, Final residual = 2.54704e-07, No Iterations 1
smoothSolver:  Solving for omega, Initial residual = 2.99097e-08, Final residual = 2.90112e-09, No Iterations 1
smoothSolver:  Solving for k, Initial residual = 6.90671e-06, Final residual = 4.95502e-07, No Iterations 3
ExecutionTime = 8.27456 s  ClockTime = 9 s

Time = 179s

smoothSolver:  Solving for Ux, Initial residual = 4.17882e-07, Final residual = 3.73691e-08, No Iterations 4
smoothSolver:  Solving for Uy, Initial residual = 1.52938e-06, Final residual = 1.48054e-07, No Iterations 2
GAMG:  Solving for p, Initial residual = 9.03805e-06, Final residual = 9.83332e-07, No Iterations 10
time step continuity errors : sum local = 1.67468e-07, global = -1.76142e-08, cumulative = 0.000174205
--> FOAM Warning : 
    From function Foam::tmp<Foam::DimensionedField<double, Foam::volMesh> > Foam::RASModels::kOmegaSSTLM<BasicMomentumTransportModel>::ReThetat0(const Internal&, const Internal&, const Internal&) const [with BasicMomentumTransportModel = Foam::incompressibleMomentumTransportModel; Foam::GeometricField<double, Foam::volMesh, Foam::Field>::Internal = Foam::DimensionedField<double, Foam::volMesh>]
    in file ../momentumTransportModels/lnInclude/kOmegaSSTLM.C at line 300
    Number of lambda iterations exceeds maxLambdaIter(10)
smoothSolver:  Solving for ReThetat, Initial residual = 6.67549e-06, Final residual = 4.96615e-07, No Iterations 6
smoothSolver:  Solving for gammaInt, Initial residual = 3.04846e-06, Final residual = 2.45352e-07, No Iterations 1
smoothSolver:  Solving for omega, Initial residual = 2.98487e-08, Final residual = 2.87508e-09, No Iterations 1
smoothSolver:  Solving for k, Initial residual = 6.74457e-06, Final residual = 4.87904e-07, No Iterations 3
ExecutionTime = 8.3211 s  ClockTime = 9 s

Time = 180s

smoothSolver:  Solving for Ux, Initial residual = 3.99992e-07, Final residual = 3.58985e-08, No Iterations 4
smoothSolver:  Solving for Uy, Initial residual = 1.45951e-06, Final residual = 1.43019e-07, No Iterations 2
GAMG:  Solving for p, Initial residual = 8.80647e-06, Final residual = 9.70159e-07, No Iterations 10
time step continuity errors : sum local = 1.65232e-07, global = -1.72403e-08, cumulative = 0.000174188
--> FOAM Warning : 
    From function Foam::tmp<Foam::DimensionedField<double, Foam::volMesh> > Foam::RASModels::kOmegaSSTLM<BasicMomentumTransportModel>::ReThetat0(const Internal&, const Internal&, const Internal&) const [with BasicMomentumTransportModel = Foam::incompressibleMomentumTransportModel; Foam::GeometricField<double, Foam::volMesh, Foam::Field>::Internal = Foam::DimensionedField<double, Foam::volMesh>]
    in file ../momentumTransportModels/lnInclude/kOmegaSSTLM.C at line 300
    Number of lambda iterations exceeds maxLambdaIter(10)
smoothSolver:  Solving for ReThetat, Initial residual = 6.56815e-06, Final residual = 4.93724e-07, No Iterations 6
smoothSolver:  Solving for gammaInt, Initial residual = 2.96942e-06, Final residual = 2.37288e-07, No Iterations 1
smoothSolver:  Solving for omega, Initial residual = 2.9761e-08, Final residual = 2.85113e-09, No Iterations 1
smoothSolver:  Solving for k, Initial residual = 6.60522e-06, Final residual = 4.81486e-07, No Iterations 3
ExecutionTime = 8.36823 s  ClockTime = 9 s

Time = 181s

smoothSolver:  Solving for Ux, Initial residual = 3.84052e-07, Final residual = 3.45006e-08, No Iterations 4
smoothSolver:  Solving for Uy, Initial residual = 1.40378e-06, Final residual = 1.38602e-07, No Iterations 2
GAMG:  Solving for p, Initial residual = 8.5042e-06, Final residual = 9.3482e-07, No Iterations 10
time step continuity errors : sum local = 1.5922e-07, global = -1.67325e-08, cumulative = 0.000174171
--> FOAM Warning : 
    From function Foam::tmp<Foam::DimensionedField<double, Foam::volMesh> > Foam::RASModels::kOmegaSSTLM<BasicMomentumTransportModel>::ReThetat0(const Internal&, const Internal&, const Internal&) const [with BasicMomentumTransportModel = Foam::incompressibleMomentumTransportModel; Foam::GeometricField<double, Foam::volMesh, Foam::Field>::Internal = Foam::DimensionedField<double, Foam::volMesh>]
    in file ../momentumTransportModels/lnInclude/kOmegaSSTLM.C at line 300
    Number of lambda iterations exceeds maxLambdaIter(10)
smoothSolver:  Solving for ReThetat, Initial residual = 6.4607e-06, Final residual = 4.90869e-07, No Iterations 6
smoothSolver:  Solving for gammaInt, Initial residual = 2.89781e-06, Final residual = 2.2888e-07, No Iterations 1
smoothSolver:  Solving for omega, Initial residual = 2.96791e-08, Final residual = 2.82845e-09, No Iterations 1
smoothSolver:  Solving for k, Initial residual = 6.48464e-06, Final residual = 4.7622e-07, No Iterations 3
ExecutionTime = 8.41462 s  ClockTime = 9 s

Time = 182s

smoothSolver:  Solving for Ux, Initial residual = 3.68885e-07, Final residual = 3.31774e-08, No Iterations 4
smoothSolver:  Solving for Uy, Initial residual = 1.3479e-06, Final residual = 1.34222e-07, No Iterations 2
GAMG:  Solving for p, Initial residual = 8.19874e-06, Final residual = 8.9449e-07, No Iterations 10
time step continuity errors : sum local = 1.52358e-07, global = -1.61416e-08, cumulative = 0.000174155
--> FOAM Warning : 
    From function Foam::tmp<Foam::DimensionedField<double, Foam::volMesh> > Foam::RASModels::kOmegaSSTLM<BasicMomentumTransportModel>::ReThetat0(const Internal&, const Internal&, const Internal&) const [with BasicMomentumTransportModel = Foam::incompressibleMomentumTransportModel; Foam::GeometricField<double, Foam::volMesh, Foam::Field>::Internal = Foam::DimensionedField<double, Foam::volMesh>]
    in file ../momentumTransportModels/lnInclude/kOmegaSSTLM.C at line 300
    Number of lambda iterations exceeds maxLambdaIter(10)
smoothSolver:  Solving for ReThetat, Initial residual = 6.35207e-06, Final residual = 4.88022e-07, No Iterations 6
smoothSolver:  Solving for gammaInt, Initial residual = 2.83402e-06, Final residual = 2.21451e-07, No Iterations 1
smoothSolver:  Solving for omega, Initial residual = 2.96177e-08, Final residual = 2.80738e-09, No Iterations 1
smoothSolver:  Solving for k, Initial residual = 6.37688e-06, Final residual = 4.71311e-07, No Iterations 3
ExecutionTime = 8.46164 s  ClockTime = 9 s

Time = 183s

smoothSolver:  Solving for Ux, Initial residual = 3.54443e-07, Final residual = 3.19405e-08, No Iterations 4
smoothSolver:  Solving for Uy, Initial residual = 1.29108e-06, Final residual = 6.88198e-08, No Iterations 3
GAMG:  Solving for p, Initial residual = 8.50429e-06, Final residual = 8.71657e-07, No Iterations 10
time step continuity errors : sum local = 1.48475e-07, global = -1.60258e-08, cumulative = 0.000174139
--> FOAM Warning : 
    From function Foam::tmp<Foam::DimensionedField<double, Foam::volMesh> > Foam::RASModels::kOmegaSSTLM<BasicMomentumTransportModel>::ReThetat0(const Internal&, const Internal&, const Internal&) const [with BasicMomentumTransportModel = Foam::incompressibleMomentumTransportModel; Foam::GeometricField<double, Foam::volMesh, Foam::Field>::Internal = Foam::DimensionedField<double, Foam::volMesh>]
    in file ../momentumTransportModels/lnInclude/kOmegaSSTLM.C at line 300
    Number of lambda iterations exceeds maxLambdaIter(10)
smoothSolver:  Solving for ReThetat, Initial residual = 6.2491e-06, Final residual = 4.85198e-07, No Iterations 6
smoothSolver:  Solving for gammaInt, Initial residual = 2.77498e-06, Final residual = 2.14791e-07, No Iterations 1
smoothSolver:  Solving for omega, Initial residual = 2.95512e-08, Final residual = 2.78775e-09, No Iterations 1
smoothSolver:  Solving for k, Initial residual = 6.28391e-06, Final residual = 4.66086e-07, No Iterations 3
ExecutionTime = 8.50807 s  ClockTime = 9 s

Time = 184s

smoothSolver:  Solving for Ux, Initial residual = 3.41659e-07, Final residual = 3.07864e-08, No Iterations 4
smoothSolver:  Solving for Uy, Initial residual = 1.22821e-06, Final residual = 6.52153e-08, No Iterations 3
GAMG:  Solving for p, Initial residual = 7.80555e-06, Final residual = 8.25337e-07, No Iterations 10
time step continuity errors : sum local = 1.40591e-07, global = -1.52102e-08, cumulative = 0.000174124
--> FOAM Warning : 
    From function Foam::tmp<Foam::DimensionedField<double, Foam::volMesh> > Foam::RASModels::kOmegaSSTLM<BasicMomentumTransportModel>::ReThetat0(const Internal&, const Internal&, const Internal&) const [with BasicMomentumTransportModel = Foam::incompressibleMomentumTransportModel; Foam::GeometricField<double, Foam::volMesh, Foam::Field>::Internal = Foam::DimensionedField<double, Foam::volMesh>]
    in file ../momentumTransportModels/lnInclude/kOmegaSSTLM.C at line 300
    Number of lambda iterations exceeds maxLambdaIter(10)
smoothSolver:  Solving for ReThetat, Initial residual = 6.15548e-06, Final residual = 4.82389e-07, No Iterations 6
smoothSolver:  Solving for gammaInt, Initial residual = 2.7189e-06, Final residual = 2.09264e-07, No Iterations 1
smoothSolver:  Solving for omega, Initial residual = 2.94984e-08, Final residual = 2.76954e-09, No Iterations 1
smoothSolver:  Solving for k, Initial residual = 6.19585e-06, Final residual = 4.60155e-07, No Iterations 3
ExecutionTime = 8.55412 s  ClockTime = 9 s

Time = 185s

smoothSolver:  Solving for Ux, Initial residual = 3.29114e-07, Final residual = 2.97005e-08, No Iterations 4
smoothSolver:  Solving for Uy, Initial residual = 1.17411e-06, Final residual = 1.17278e-07, No Iterations 2
GAMG:  Solving for p, Initial residual = 7.53837e-06, Final residual = 7.71527e-07, No Iterations 10
time step continuity errors : sum local = 1.31431e-07, global = -1.41003e-08, cumulative = 0.00017411
--> FOAM Warning : 
    From function Foam::tmp<Foam::DimensionedField<double, Foam::volMesh> > Foam::RASModels::kOmegaSSTLM<BasicMomentumTransportModel>::ReThetat0(const Internal&, const Internal&, const Internal&) const [with BasicMomentumTransportModel = Foam::incompressibleMomentumTransportModel; Foam::GeometricField<double, Foam::volMesh, Foam::Field>::Internal = Foam::DimensionedField<double, Foam::volMesh>]
    in file ../momentumTransportModels/lnInclude/kOmegaSSTLM.C at line 300
    Number of lambda iterations exceeds maxLambdaIter(10)
smoothSolver:  Solving for ReThetat, Initial residual = 6.07008e-06, Final residual = 4.79595e-07, No Iterations 6
smoothSolver:  Solving for gammaInt, Initial residual = 2.67152e-06, Final residual = 2.05186e-07, No Iterations 1
smoothSolver:  Solving for omega, Initial residual = 2.94443e-08, Final residual = 2.75263e-09, No Iterations 1
smoothSolver:  Solving for k, Initial residual = 6.11366e-06, Final residual = 4.53345e-07, No Iterations 3
ExecutionTime = 8.60054 s  ClockTime = 9 s

Time = 186s

smoothSolver:  Solving for Ux, Initial residual = 3.17251e-07, Final residual = 2.86898e-08, No Iterations 4
smoothSolver:  Solving for Uy, Initial residual = 1.13216e-06, Final residual = 5.99476e-08, No Iterations 3
GAMG:  Solving for p, Initial residual = 7.35459e-06, Final residual = 7.54298e-07, No Iterations 10
time step continuity errors : sum local = 1.28502e-07, global = -1.39636e-08, cumulative = 0.000174096
--> FOAM Warning : 
    From function Foam::tmp<Foam::DimensionedField<double, Foam::volMesh> > Foam::RASModels::kOmegaSSTLM<BasicMomentumTransportModel>::ReThetat0(const Internal&, const Internal&, const Internal&) const [with BasicMomentumTransportModel = Foam::incompressibleMomentumTransportModel; Foam::GeometricField<double, Foam::volMesh, Foam::Field>::Internal = Foam::DimensionedField<double, Foam::volMesh>]
    in file ../momentumTransportModels/lnInclude/kOmegaSSTLM.C at line 300
    Number of lambda iterations exceeds maxLambdaIter(10)
smoothSolver:  Solving for ReThetat, Initial residual = 5.99306e-06, Final residual = 4.7682e-07, No Iterations 6
smoothSolver:  Solving for gammaInt, Initial residual = 2.70744e-06, Final residual = 2.1065e-07, No Iterations 1
smoothSolver:  Solving for omega, Initial residual = 2.93941e-08, Final residual = 2.73688e-09, No Iterations 1
smoothSolver:  Solving for k, Initial residual = 6.08254e-06, Final residual = 4.4154e-07, No Iterations 3
ExecutionTime = 8.64725 s  ClockTime = 9 s

Time = 187s

smoothSolver:  Solving for Ux, Initial residual = 3.07146e-07, Final residual = 2.77679e-08, No Iterations 4
smoothSolver:  Solving for Uy, Initial residual = 1.08488e-06, Final residual = 1.07962e-07, No Iterations 2
GAMG:  Solving for p, Initial residual = 7.10321e-06, Final residual = 7.11225e-07, No Iterations 10
time step continuity errors : sum local = 1.2117e-07, global = -1.30265e-08, cumulative = 0.000174083
--> FOAM Warning : 
    From function Foam::tmp<Foam::DimensionedField<double, Foam::volMesh> > Foam::RASModels::kOmegaSSTLM<BasicMomentumTransportModel>::ReThetat0(const Internal&, const Internal&, const Internal&) const [with BasicMomentumTransportModel = Foam::incompressibleMomentumTransportModel; Foam::GeometricField<double, Foam::volMesh, Foam::Field>::Internal = Foam::DimensionedField<double, Foam::volMesh>]
    in file ../momentumTransportModels/lnInclude/kOmegaSSTLM.C at line 300
    Number of lambda iterations exceeds maxLambdaIter(10)
smoothSolver:  Solving for ReThetat, Initial residual = 5.92734e-06, Final residual = 4.74052e-07, No Iterations 6
smoothSolver:  Solving for gammaInt, Initial residual = 2.50866e-06, Final residual = 1.84369e-07, No Iterations 1
smoothSolver:  Solving for omega, Initial residual = 2.93546e-08, Final residual = 2.72243e-09, No Iterations 1
smoothSolver:  Solving for k, Initial residual = 5.91403e-06, Final residual = 4.39073e-07, No Iterations 3
ExecutionTime = 8.69101 s  ClockTime = 9 s

Time = 188s

smoothSolver:  Solving for Ux, Initial residual = 2.96357e-07, Final residual = 2.68864e-08, No Iterations 4
smoothSolver:  Solving for Uy, Initial residual = 1.0501e-06, Final residual = 1.04451e-07, No Iterations 2
GAMG:  Solving for p, Initial residual = 6.7812e-06, Final residual = 9.98858e-07, No Iterations 8
time step continuity errors : sum local = 1.70181e-07, global = -1.97535e-08, cumulative = 0.000174063
--> FOAM Warning : 
    From function Foam::tmp<Foam::DimensionedField<double, Foam::volMesh> > Foam::RASModels::kOmegaSSTLM<BasicMomentumTransportModel>::ReThetat0(const Internal&, const Internal&, const Internal&) const [with BasicMomentumTransportModel = Foam::incompressibleMomentumTransportModel; Foam::GeometricField<double, Foam::volMesh, Foam::Field>::Internal = Foam::DimensionedField<double, Foam::volMesh>]
    in file ../momentumTransportModels/lnInclude/kOmegaSSTLM.C at line 300
    Number of lambda iterations exceeds maxLambdaIter(10)
smoothSolver:  Solving for ReThetat, Initial residual = 5.86751e-06, Final residual = 4.71298e-07, No Iterations 6
smoothSolver:  Solving for gammaInt, Initial residual = 2.41241e-06, Final residual = 1.79112e-07, No Iterations 1
smoothSolver:  Solving for omega, Initial residual = 2.9332e-08, Final residual = 2.70985e-09, No Iterations 1
smoothSolver:  Solving for k, Initial residual = 5.79298e-06, Final residual = 4.37453e-07, No Iterations 3
ExecutionTime = 8.73403 s  ClockTime = 9 s

Time = 189s

smoothSolver:  Solving for Ux, Initial residual = 2.85978e-07, Final residual = 2.60578e-08, No Iterations 4
smoothSolver:  Solving for Uy, Initial residual = 1.00698e-06, Final residual = 1.00286e-07, No Iterations 2
GAMG:  Solving for p, Initial residual = 6.62241e-06, Final residual = 6.91678e-07, No Iterations 10
time step continuity errors : sum local = 1.1785e-07, global = -1.23375e-08, cumulative = 0.000174051
--> FOAM Warning : 
    From function Foam::tmp<Foam::DimensionedField<double, Foam::volMesh> > Foam::RASModels::kOmegaSSTLM<BasicMomentumTransportModel>::ReThetat0(const Internal&, const Internal&, const Internal&) const [with BasicMomentumTransportModel = Foam::incompressibleMomentumTransportModel; Foam::GeometricField<double, Foam::volMesh, Foam::Field>::Internal = Foam::DimensionedField<double, Foam::volMesh>]
    in file ../momentumTransportModels/lnInclude/kOmegaSSTLM.C at line 300
    Number of lambda iterations exceeds maxLambdaIter(10)
smoothSolver:  Solving for ReThetat, Initial residual = 5.8246e-06, Final residual = 4.68553e-07, No Iterations 6
smoothSolver:  Solving for gammaInt, Initial residual = 2.33575e-06, Final residual = 1.72885e-07, No Iterations 1
smoothSolver:  Solving for omega, Initial residual = 2.93082e-08, Final residual = 2.69818e-09, No Iterations 1
smoothSolver:  Solving for k, Initial residual = 5.72371e-06, Final residual = 4.37776e-07, No Iterations 3
ExecutionTime = 8.77895 s  ClockTime = 9 s

Time = 190s

smoothSolver:  Solving for Ux, Initial residual = 2.78005e-07, Final residual = 2.52831e-08, No Iterations 4
smoothSolver:  Solving for Uy, Initial residual = 9.93581e-07, Final residual = 9.66821e-08, No Iterations 2
GAMG:  Solving for p, Initial residual = 6.27065e-06, Final residual = 9.49258e-07, No Iterations 8
time step continuity errors : sum local = 1.61746e-07, global = -1.86521e-08, cumulative = 0.000174032
--> FOAM Warning : 
    From function Foam::tmp<Foam::DimensionedField<double, Foam::volMesh> > Foam::RASModels::kOmegaSSTLM<BasicMomentumTransportModel>::ReThetat0(const Internal&, const Internal&, const Internal&) const [with BasicMomentumTransportModel = Foam::incompressibleMomentumTransportModel; Foam::GeometricField<double, Foam::volMesh, Foam::Field>::Internal = Foam::DimensionedField<double, Foam::volMesh>]
    in file ../momentumTransportModels/lnInclude/kOmegaSSTLM.C at line 300
    Number of lambda iterations exceeds maxLambdaIter(10)
smoothSolver:  Solving for ReThetat, Initial residual = 5.77091e-06, Final residual = 4.65835e-07, No Iterations 6
smoothSolver:  Solving for gammaInt, Initial residual = 2.27416e-06, Final residual = 1.67903e-07, No Iterations 1
smoothSolver:  Solving for omega, Initial residual = 2.92643e-08, Final residual = 2.68673e-09, No Iterations 1
smoothSolver:  Solving for k, Initial residual = 5.68763e-06, Final residual = 4.38058e-07, No Iterations 3
ExecutionTime = 8.82037 s  ClockTime = 9 s


SIMPLE solution converged in 190 iterations

End

