/*---------------------------------------------------------------------------*\
  =========                 |
  \\      /  F ield         | OpenFOAM: The Open Source CFD Toolbox
   \\    /   O peration     | Website:  https://openfoam.org
    \\  /    A nd           | Version:  13
     \\/     M anipulation  |
\*---------------------------------------------------------------------------*/
Build  : 13-441953dfbb42
Exec   : foamRun
Date   : May 17 2026
Time   : 12:48:47
Host   : "B3D-adscfd01"
PID    : 3383160
I/O    : uncollated
Case   : /home/ads-user/openfoam/openfoam-T3A-transition/studies/Tu9
nProcs : 1
sigFpe : Enabling floating point exception trapping (FOAM_SIGFPE).
fileModificationChecking : Monitoring run-time modified files using timeStampMaster (fileModificationSkew 10)
allowSystemOperations : Allowing user-supplied system call operations

// * * * * * * * * * * * * * * * * * * * * * * * * * * * * * * * * * * * * * //
Create time

Create mesh for time = 0

Selecting solver incompressibleFluid
Selecting viscosity model constant
Selecting turbulence model type RAS
    Selecting RAS turbulence model kOmegaSSTLM
No MRF models present

Selecting patchDistMethod meshWave

SIMPLE: Convergence criteria found
        p: tolerance 1e-05
        U: tolerance 1e-06
        "(k|omega|gammaInt|ReThetat)": tolerance 0.0001


SIMPLE: Operating solver in steady-state mode with 1 outer corrector
SIMPLE: Operating solver in SIMPLE mode



Starting time loop

wallShearStress wallShearStress:
    processing all wall patches

Reading set description:
    line

Reading set description:
    line

Time = 1s

smoothSolver:  Solving for Ux, Initial residual = 1, Final residual = 0.0711854, No Iterations 5
smoothSolver:  Solving for Uy, Initial residual = 1, Final residual = 0.0936573, No Iterations 3
GAMG:  Solving for p, Initial residual = 1, Final residual = 0.0775687, No Iterations 28
time step continuity errors : sum local = 0.000108717, global = -3.58176e-06, cumulative = -3.58176e-06
smoothSolver:  Solving for ReThetat, Initial residual = 1, Final residual = 0.0326591, No Iterations 1
smoothSolver:  Solving for gammaInt, Initial residual = 1, Final residual = 1.09504, No Iterations 10
smoothSolver:  Solving for omega, Initial residual = 0.047793, Final residual = 0.00399562, No Iterations 3
smoothSolver:  Solving for k, Initial residual = 1, Final residual = 0.0714763, No Iterations 1
ExecutionTime = 0.309507 s  ClockTime = 1 s

Time = 2s

smoothSolver:  Solving for Ux, Initial residual = 0.185183, Final residual = 0.0141778, No Iterations 2
smoothSolver:  Solving for Uy, Initial residual = 0.0365212, Final residual = 0.00244594, No Iterations 3
GAMG:  Solving for p, Initial residual = 0.00269683, Final residual = 0.000222453, No Iterations 16
time step continuity errors : sum local = 0.0013885, global = 0.000188833, cumulative = 0.000185251
smoothSolver:  Solving for ReThetat, Initial residual = 0.967632, Final residual = 0.0231868, No Iterations 1
smoothSolver:  Solving for gammaInt, Initial residual = 1, Final residual = 0.0188697, No Iterations 1
smoothSolver:  Solving for omega, Initial residual = 0.128034, Final residual = 0.00047036, No Iterations 1
smoothSolver:  Solving for k, Initial residual = 0.2837, Final residual = 0.0133357, No Iterations 2
ExecutionTime = 0.361651 s  ClockTime = 1 s

Time = 3s

smoothSolver:  Solving for Ux, Initial residual = 0.0329217, Final residual = 0.00197401, No Iterations 4
smoothSolver:  Solving for Uy, Initial residual = 0.0154923, Final residual = 0.00110258, No Iterations 3
GAMG:  Solving for p, Initial residual = 0.00650581, Final residual = 0.000586287, No Iterations 12
time step continuity errors : sum local = 0.00111149, global = 0.000286074, cumulative = 0.000471325
smoothSolver:  Solving for ReThetat, Initial residual = 0.386202, Final residual = 0.0126034, No Iterations 1
smoothSolver:  Solving for gammaInt, Initial residual = 0.0386381, Final residual = 0.00292906, No Iterations 2
smoothSolver:  Solving for omega, Initial residual = 0.00779855, Final residual = 0.00013748, No Iterations 1
smoothSolver:  Solving for k, Initial residual = 0.15013, Final residual = 0.0113526, No Iterations 2
ExecutionTime = 0.411969 s  ClockTime = 1 s

Time = 4s

smoothSolver:  Solving for Ux, Initial residual = 0.014085, Final residual = 0.00129998, No Iterations 4
smoothSolver:  Solving for Uy, Initial residual = 0.011181, Final residual = 0.000865708, No Iterations 3
GAMG:  Solving for p, Initial residual = 0.00949166, Final residual = 0.000815743, No Iterations 10
time step continuity errors : sum local = 0.000599628, global = 0.000121383, cumulative = 0.000592709
smoothSolver:  Solving for ReThetat, Initial residual = 0.225152, Final residual = 0.0086627, No Iterations 1
smoothSolver:  Solving for gammaInt, Initial residual = 0.0114245, Final residual = 0.000730138, No Iterations 2
smoothSolver:  Solving for omega, Initial residual = 0.00783044, Final residual = 9.79378e-05, No Iterations 1
smoothSolver:  Solving for k, Initial residual = 0.0975146, Final residual = 0.00609725, No Iterations 3
ExecutionTime = 0.457779 s  ClockTime = 1 s

Time = 5s

smoothSolver:  Solving for Ux, Initial residual = 0.0092055, Final residual = 0.000648772, No Iterations 5
smoothSolver:  Solving for Uy, Initial residual = 0.00836033, Final residual = 0.00075755, No Iterations 3
GAMG:  Solving for p, Initial residual = 0.014031, Final residual = 0.000748632, No Iterations 8
time step continuity errors : sum local = 0.000311903, global = 6.25881e-05, cumulative = 0.000655297
smoothSolver:  Solving for ReThetat, Initial residual = 0.156625, Final residual = 0.00670885, No Iterations 1
smoothSolver:  Solving for gammaInt, Initial residual = 0.0176952, Final residual = 0.00175933, No Iterations 1
smoothSolver:  Solving for omega, Initial residual = 0.0031851, Final residual = 8.60383e-05, No Iterations 1
smoothSolver:  Solving for k, Initial residual = 0.072476, Final residual = 0.00596725, No Iterations 3
ExecutionTime = 0.500359 s  ClockTime = 1 s

Time = 6s

smoothSolver:  Solving for Ux, Initial residual = 0.00729879, Final residual = 0.000531087, No Iterations 5
smoothSolver:  Solving for Uy, Initial residual = 0.0068424, Final residual = 0.000413975, No Iterations 4
GAMG:  Solving for p, Initial residual = 0.0151665, Final residual = 0.000769036, No Iterations 8
time step continuity errors : sum local = 0.00028556, global = 4.58143e-05, cumulative = 0.000701111
smoothSolver:  Solving for ReThetat, Initial residual = 0.119629, Final residual = 0.00544014, No Iterations 1
smoothSolver:  Solving for gammaInt, Initial residual = 0.0150414, Final residual = 0.000533375, No Iterations 2
smoothSolver:  Solving for omega, Initial residual = 0.00234075, Final residual = 6.0474e-05, No Iterations 1
smoothSolver:  Solving for k, Initial residual = 0.0579883, Final residual = 0.00576877, No Iterations 3
ExecutionTime = 0.544182 s  ClockTime = 1 s

Time = 7s

smoothSolver:  Solving for Ux, Initial residual = 0.00572222, Final residual = 0.000459036, No Iterations 5
smoothSolver:  Solving for Uy, Initial residual = 0.00555465, Final residual = 0.000374202, No Iterations 4
GAMG:  Solving for p, Initial residual = 0.0129889, Final residual = 0.000880443, No Iterations 8
time step continuity errors : sum local = 0.00031136, global = 7.99267e-05, cumulative = 0.000781038
smoothSolver:  Solving for ReThetat, Initial residual = 0.096744, Final residual = 0.00454795, No Iterations 1
smoothSolver:  Solving for gammaInt, Initial residual = 0.00642643, Final residual = 0.000533733, No Iterations 1
smoothSolver:  Solving for omega, Initial residual = 0.0011879, Final residual = 4.57689e-05, No Iterations 1
smoothSolver:  Solving for k, Initial residual = 0.0493136, Final residual = 0.00324199, No Iterations 4
ExecutionTime = 0.589756 s  ClockTime = 1 s

Time = 8s

smoothSolver:  Solving for Ux, Initial residual = 0.00501191, Final residual = 0.000400872, No Iterations 5
smoothSolver:  Solving for Uy, Initial residual = 0.00480702, Final residual = 0.000324663, No Iterations 4
GAMG:  Solving for p, Initial residual = 0.0120269, Final residual = 0.00107011, No Iterations 7
time step continuity errors : sum local = 0.000389827, global = -3.0089e-05, cumulative = 0.000750949
smoothSolver:  Solving for ReThetat, Initial residual = 0.0814281, Final residual = 0.00391998, No Iterations 1
smoothSolver:  Solving for gammaInt, Initial residual = 0.0108225, Final residual = 0.000729227, No Iterations 1
smoothSolver:  Solving for omega, Initial residual = 0.000787091, Final residual = 3.81917e-05, No Iterations 1
smoothSolver:  Solving for k, Initial residual = 0.0436293, Final residual = 0.0028956, No Iterations 4
ExecutionTime = 0.632031 s  ClockTime = 1 s

Time = 9s

smoothSolver:  Solving for Ux, Initial residual = 0.00437306, Final residual = 0.000357329, No Iterations 5
smoothSolver:  Solving for Uy, Initial residual = 0.00421711, Final residual = 0.000272833, No Iterations 4
GAMG:  Solving for p, Initial residual = 0.0113683, Final residual = 0.000864678, No Iterations 6
time step continuity errors : sum local = 0.000287921, global = 3.97494e-06, cumulative = 0.000754924
smoothSolver:  Solving for ReThetat, Initial residual = 0.0703416, Final residual = 0.00341905, No Iterations 1
smoothSolver:  Solving for gammaInt, Initial residual = 0.0225241, Final residual = 0.000571526, No Iterations 2
smoothSolver:  Solving for omega, Initial residual = 0.000435715, Final residual = 2.86901e-05, No Iterations 1
smoothSolver:  Solving for k, Initial residual = 0.0394092, Final residual = 0.00248753, No Iterations 4
ExecutionTime = 0.673466 s  ClockTime = 1 s

Time = 10s

smoothSolver:  Solving for Ux, Initial residual = 0.00375699, Final residual = 0.000318989, No Iterations 5
smoothSolver:  Solving for Uy, Initial residual = 0.00379462, Final residual = 0.000221698, No Iterations 4
GAMG:  Solving for p, Initial residual = 0.0105703, Final residual = 0.000877488, No Iterations 6
time step continuity errors : sum local = 0.000260991, global = 5.44953e-05, cumulative = 0.000809419
smoothSolver:  Solving for ReThetat, Initial residual = 0.0620091, Final residual = 0.00301044, No Iterations 1
smoothSolver:  Solving for gammaInt, Initial residual = 0.00862256, Final residual = 0.000583058, No Iterations 1
smoothSolver:  Solving for omega, Initial residual = 0.000294464, Final residual = 2.78316e-05, No Iterations 1
smoothSolver:  Solving for k, Initial residual = 0.0361905, Final residual = 0.00204068, No Iterations 4
ExecutionTime = 0.714142 s  ClockTime = 1 s

Time = 11s

smoothSolver:  Solving for Ux, Initial residual = 0.00337598, Final residual = 0.000289841, No Iterations 5
smoothSolver:  Solving for Uy, Initial residual = 0.00350377, Final residual = 0.000343357, No Iterations 3
GAMG:  Solving for p, Initial residual = 0.011302, Final residual = 0.000855412, No Iterations 6
time step continuity errors : sum local = 0.000208699, global = 4.64775e-05, cumulative = 0.000855896
smoothSolver:  Solving for ReThetat, Initial residual = 0.0556053, Final residual = 0.00267165, No Iterations 1
smoothSolver:  Solving for gammaInt, Initial residual = 0.0110861, Final residual = 0.000558791, No Iterations 1
smoothSolver:  Solving for omega, Initial residual = 0.000173333, Final residual = 1.10911e-05, No Iterations 2
smoothSolver:  Solving for k, Initial residual = 0.0335256, Final residual = 0.00312433, No Iterations 3
ExecutionTime = 0.755471 s  ClockTime = 1 s

Time = 12s

smoothSolver:  Solving for Ux, Initial residual = 0.00296003, Final residual = 0.000262566, No Iterations 5
smoothSolver:  Solving for Uy, Initial residual = 0.00326543, Final residual = 0.000290229, No Iterations 3
GAMG:  Solving for p, Initial residual = 0.0111939, Final residual = 0.000983168, No Iterations 7
time step continuity errors : sum local = 0.000195587, global = -5.07548e-05, cumulative = 0.000805142
smoothSolver:  Solving for ReThetat, Initial residual = 0.0502569, Final residual = 0.00236511, No Iterations 1
smoothSolver:  Solving for gammaInt, Initial residual = 0.0212586, Final residual = 0.000427922, No Iterations 2
smoothSolver:  Solving for omega, Initial residual = 0.000129092, Final residual = 1.00725e-05, No Iterations 2
smoothSolver:  Solving for k, Initial residual = 0.0311952, Final residual = 0.00254248, No Iterations 3
ExecutionTime = 0.798103 s  ClockTime = 1 s

Time = 13s

smoothSolver:  Solving for Ux, Initial residual = 0.00269968, Final residual = 0.000241705, No Iterations 5
smoothSolver:  Solving for Uy, Initial residual = 0.00307457, Final residual = 0.000247197, No Iterations 3
GAMG:  Solving for p, Initial residual = 0.0135524, Final residual = 0.00131022, No Iterations 6
time step continuity errors : sum local = 0.0001933, global = 5.50445e-05, cumulative = 0.000860186
smoothSolver:  Solving for ReThetat, Initial residual = 0.046044, Final residual = 0.00210183, No Iterations 1
smoothSolver:  Solving for gammaInt, Initial residual = 0.0103314, Final residual = 0.000531743, No Iterations 1
smoothSolver:  Solving for omega, Initial residual = 8.15388e-05, Final residual = 4.25161e-06, No Iterations 3
smoothSolver:  Solving for k, Initial residual = 0.0289696, Final residual = 0.00198699, No Iterations 3
ExecutionTime = 0.840086 s  ClockTime = 1 s

Time = 14s

smoothSolver:  Solving for Ux, Initial residual = 0.00243561, Final residual = 0.000221133, No Iterations 5
smoothSolver:  Solving for Uy, Initial residual = 0.0028707, Final residual = 0.00021632, No Iterations 3
GAMG:  Solving for p, Initial residual = 0.016605, Final residual = 0.00159774, No Iterations 8
time step continuity errors : sum local = 0.000161572, global = 4.70483e-05, cumulative = 0.000907234
smoothSolver:  Solving for ReThetat, Initial residual = 0.04261, Final residual = 0.00187544, No Iterations 1
smoothSolver:  Solving for gammaInt, Initial residual = 0.00993639, Final residual = 0.00043914, No Iterations 1
smoothSolver:  Solving for omega, Initial residual = 6.98235e-05, Final residual = 3.46626e-06, No Iterations 3
smoothSolver:  Solving for k, Initial residual = 0.0266768, Final residual = 0.00151685, No Iterations 3
ExecutionTime = 0.883726 s  ClockTime = 1 s

Time = 15s

smoothSolver:  Solving for Ux, Initial residual = 0.00223748, Final residual = 0.000205901, No Iterations 5
smoothSolver:  Solving for Uy, Initial residual = 0.00270711, Final residual = 0.000195982, No Iterations 3
GAMG:  Solving for p, Initial residual = 0.0270717, Final residual = 0.00251069, No Iterations 8
time step continuity errors : sum local = 0.000139782, global = 4.17894e-05, cumulative = 0.000949024
smoothSolver:  Solving for ReThetat, Initial residual = 0.0398142, Final residual = 0.0016763, No Iterations 1
smoothSolver:  Solving for gammaInt, Initial residual = 0.011576, Final residual = 0.000472329, No Iterations 1
smoothSolver:  Solving for omega, Initial residual = 4.75856e-05, Final residual = 2.70815e-06, No Iterations 3
smoothSolver:  Solving for k, Initial residual = 0.0242391, Final residual = 0.00112954, No Iterations 3
ExecutionTime = 0.927796 s  ClockTime = 1 s

Time = 16s

smoothSolver:  Solving for Ux, Initial residual = 0.00207585, Final residual = 0.000190122, No Iterations 5
smoothSolver:  Solving for Uy, Initial residual = 0.00252356, Final residual = 0.000184321, No Iterations 3
GAMG:  Solving for p, Initial residual = 0.0736865, Final residual = 0.00602017, No Iterations 9
time step continuity errors : sum local = 0.000109668, global = -3.47081e-05, cumulative = 0.000914316
smoothSolver:  Solving for ReThetat, Initial residual = 0.0374933, Final residual = 0.0015016, No Iterations 1
smoothSolver:  Solving for gammaInt, Initial residual = 0.0149772, Final residual = 0.00143911, No Iterations 1
smoothSolver:  Solving for omega, Initial residual = 4.47693e-05, Final residual = 2.11909e-06, No Iterations 3
smoothSolver:  Solving for k, Initial residual = 0.0216532, Final residual = 0.00205925, No Iterations 2
ExecutionTime = 0.971854 s  ClockTime = 1 s

Time = 17s

smoothSolver:  Solving for Ux, Initial residual = 0.00192858, Final residual = 0.000178332, No Iterations 5
smoothSolver:  Solving for Uy, Initial residual = 0.00237423, Final residual = 0.000178386, No Iterations 3
GAMG:  Solving for p, Initial residual = 0.026637, Final residual = 0.0024336, No Iterations 7
time step continuity errors : sum local = 0.000109758, global = -3.41382e-05, cumulative = 0.000880177
smoothSolver:  Solving for ReThetat, Initial residual = 0.0353938, Final residual = 0.00132064, No Iterations 1
smoothSolver:  Solving for gammaInt, Initial residual = 0.00603201, Final residual = 0.000377019, No Iterations 1
smoothSolver:  Solving for omega, Initial residual = 3.24813e-05, Final residual = 1.61106e-06, No Iterations 3
smoothSolver:  Solving for k, Initial residual = 0.0189699, Final residual = 0.0015793, No Iterations 2
ExecutionTime = 1.01423 s  ClockTime = 1 s

Time = 18s

smoothSolver:  Solving for Ux, Initial residual = 0.00180408, Final residual = 0.000165773, No Iterations 5
smoothSolver:  Solving for Uy, Initial residual = 0.00221047, Final residual = 0.000175984, No Iterations 3
GAMG:  Solving for p, Initial residual = 0.0155557, Final residual = 0.00136712, No Iterations 7
time step continuity errors : sum local = 9.53196e-05, global = -2.84015e-05, cumulative = 0.000851776
smoothSolver:  Solving for ReThetat, Initial residual = 0.0337911, Final residual = 0.00117429, No Iterations 1
smoothSolver:  Solving for gammaInt, Initial residual = 0.00481741, Final residual = 0.000229909, No Iterations 1
smoothSolver:  Solving for omega, Initial residual = 3.15676e-05, Final residual = 3.10333e-06, No Iterations 2
smoothSolver:  Solving for k, Initial residual = 0.0163513, Final residual = 0.00120124, No Iterations 2
ExecutionTime = 1.05557 s  ClockTime = 1 s

Time = 19s

smoothSolver:  Solving for Ux, Initial residual = 0.00167522, Final residual = 0.000155963, No Iterations 5
smoothSolver:  Solving for Uy, Initial residual = 0.00207577, Final residual = 0.000174102, No Iterations 3
GAMG:  Solving for p, Initial residual = 0.0106324, Final residual = 0.000998844, No Iterations 6
time step continuity errors : sum local = 8.94872e-05, global = 2.19346e-05, cumulative = 0.000873711
smoothSolver:  Solving for ReThetat, Initial residual = 0.0335567, Final residual = 0.00105441, No Iterations 1
smoothSolver:  Solving for gammaInt, Initial residual = 0.00291863, Final residual = 0.000129707, No Iterations 1
smoothSolver:  Solving for omega, Initial residual = 2.48333e-05, Final residual = 9.59559e-07, No Iterations 3
smoothSolver:  Solving for k, Initial residual = 0.0137764, Final residual = 0.000902127, No Iterations 2
ExecutionTime = 1.09631 s  ClockTime = 2 s

Time = 20s

smoothSolver:  Solving for Ux, Initial residual = 0.00156581, Final residual = 0.000145835, No Iterations 5
smoothSolver:  Solving for Uy, Initial residual = 0.00194626, Final residual = 0.000172376, No Iterations 3
GAMG:  Solving for p, Initial residual = 0.00845378, Final residual = 0.000607304, No Iterations 7
time step continuity errors : sum local = 6.14825e-05, global = -1.3808e-05, cumulative = 0.000859903
smoothSolver:  Solving for ReThetat, Initial residual = 0.0335497, Final residual = 0.000952006, No Iterations 1
smoothSolver:  Solving for gammaInt, Initial residual = 0.00322305, Final residual = 0.000108067, No Iterations 1
smoothSolver:  Solving for omega, Initial residual = 2.29097e-05, Final residual = 1.91438e-06, No Iterations 2
smoothSolver:  Solving for k, Initial residual = 0.0114233, Final residual = 0.000680328, No Iterations 2
ExecutionTime = 1.13963 s  ClockTime = 2 s

Time = 21s

smoothSolver:  Solving for Ux, Initial residual = 0.00146047, Final residual = 0.000137439, No Iterations 5
smoothSolver:  Solving for Uy, Initial residual = 0.0018401, Final residual = 0.000168794, No Iterations 3
GAMG:  Solving for p, Initial residual = 0.00698016, Final residual = 0.000628046, No Iterations 6
time step continuity errors : sum local = 6.72878e-05, global = 1.24217e-05, cumulative = 0.000872324
smoothSolver:  Solving for ReThetat, Initial residual = 0.0330236, Final residual = 0.000859688, No Iterations 1
smoothSolver:  Solving for gammaInt, Initial residual = 0.00170067, Final residual = 6.44062e-05, No Iterations 1
smoothSolver:  Solving for omega, Initial residual = 1.85282e-05, Final residual = 1.54153e-06, No Iterations 2
smoothSolver:  Solving for k, Initial residual = 0.0093138, Final residual = 0.000514669, No Iterations 2
ExecutionTime = 1.17995 s  ClockTime = 2 s

Time = 22s

smoothSolver:  Solving for Ux, Initial residual = 0.00136926, Final residual = 0.000129186, No Iterations 5
smoothSolver:  Solving for Uy, Initial residual = 0.00175502, Final residual = 0.00016354, No Iterations 3
GAMG:  Solving for p, Initial residual = 0.00624383, Final residual = 0.000485021, No Iterations 7
time step continuity errors : sum local = 5.2102e-05, global = -1.2656e-05, cumulative = 0.000859668
smoothSolver:  Solving for ReThetat, Initial residual = 0.0319661, Final residual = 0.000775311, No Iterations 1
smoothSolver:  Solving for gammaInt, Initial residual = 0.00132128, Final residual = 4.6977e-05, No Iterations 1
smoothSolver:  Solving for omega, Initial residual = 1.698e-05, Final residual = 1.23038e-06, No Iterations 2
smoothSolver:  Solving for k, Initial residual = 0.00747048, Final residual = 0.000392735, No Iterations 2
ExecutionTime = 1.22233 s  ClockTime = 2 s

Time = 23s

smoothSolver:  Solving for Ux, Initial residual = 0.00128624, Final residual = 0.000122075, No Iterations 5
smoothSolver:  Solving for Uy, Initial residual = 0.00167634, Final residual = 0.000156557, No Iterations 3
GAMG:  Solving for p, Initial residual = 0.0058032, Final residual = 0.000533531, No Iterations 7
time step continuity errors : sum local = 5.48523e-05, global = -1.46379e-05, cumulative = 0.00084503
smoothSolver:  Solving for ReThetat, Initial residual = 0.0305259, Final residual = 0.000698181, No Iterations 1
smoothSolver:  Solving for gammaInt, Initial residual = 0.000983267, Final residual = 3.35147e-05, No Iterations 1
smoothSolver:  Solving for omega, Initial residual = 1.39886e-05, Final residual = 9.84147e-07, No Iterations 2
smoothSolver:  Solving for k, Initial residual = 0.0059054, Final residual = 0.00030515, No Iterations 2
ExecutionTime = 1.26371 s  ClockTime = 2 s

Time = 24s

smoothSolver:  Solving for Ux, Initial residual = 0.00121622, Final residual = 0.000115297, No Iterations 5
smoothSolver:  Solving for Uy, Initial residual = 0.00161841, Final residual = 0.000148184, No Iterations 3
GAMG:  Solving for p, Initial residual = 0.00582825, Final residual = 0.000578772, No Iterations 7
time step continuity errors : sum local = 5.40159e-05, global = -1.86656e-05, cumulative = 0.000826365
smoothSolver:  Solving for ReThetat, Initial residual = 0.0287396, Final residual = 0.00062725, No Iterations 1
smoothSolver:  Solving for gammaInt, Initial residual = 0.00069528, Final residual = 2.53898e-05, No Iterations 1
smoothSolver:  Solving for omega, Initial residual = 1.22825e-05, Final residual = 7.98008e-07, No Iterations 2
smoothSolver:  Solving for k, Initial residual = 0.0046079, Final residual = 0.000243753, No Iterations 2
ExecutionTime = 1.30505 s  ClockTime = 2 s

Time = 25s

smoothSolver:  Solving for Ux, Initial residual = 0.0011517, Final residual = 0.000109314, No Iterations 5
smoothSolver:  Solving for Uy, Initial residual = 0.0015469, Final residual = 0.000138651, No Iterations 3
GAMG:  Solving for p, Initial residual = 0.00614148, Final residual = 0.000417699, No Iterations 6
time step continuity errors : sum local = 3.42287e-05, global = -3.06769e-06, cumulative = 0.000823297
smoothSolver:  Solving for ReThetat, Initial residual = 0.0266544, Final residual = 0.000561683, No Iterations 1
smoothSolver:  Solving for gammaInt, Initial residual = 0.000484918, Final residual = 1.8067e-05, No Iterations 1
smoothSolver:  Solving for omega, Initial residual = 1.02561e-05, Final residual = 6.55547e-07, No Iterations 2
smoothSolver:  Solving for k, Initial residual = 0.00355546, Final residual = 0.000201466, No Iterations 2
ExecutionTime = 1.3456 s  ClockTime = 2 s

Time = 26s

smoothSolver:  Solving for Ux, Initial residual = 0.00109347, Final residual = 0.000103672, No Iterations 5
smoothSolver:  Solving for Uy, Initial residual = 0.00148475, Final residual = 0.000128708, No Iterations 3
GAMG:  Solving for p, Initial residual = 0.00680925, Final residual = 0.000543602, No Iterations 9
time step continuity errors : sum local = 3.70266e-05, global = -1.12036e-05, cumulative = 0.000812094
smoothSolver:  Solving for ReThetat, Initial residual = 0.0242947, Final residual = 0.00050101, No Iterations 1
smoothSolver:  Solving for gammaInt, Initial residual = 0.000527839, Final residual = 1.40293e-05, No Iterations 1
smoothSolver:  Solving for omega, Initial residual = 8.84816e-06, Final residual = 5.50991e-07, No Iterations 2
smoothSolver:  Solving for k, Initial residual = 0.00271637, Final residual = 0.000173072, No Iterations 2
ExecutionTime = 1.38961 s  ClockTime = 2 s

Time = 27s

smoothSolver:  Solving for Ux, Initial residual = 0.0010412, Final residual = 9.86574e-05, No Iterations 5
smoothSolver:  Solving for Uy, Initial residual = 0.00140546, Final residual = 0.000118536, No Iterations 3
GAMG:  Solving for p, Initial residual = 0.00809034, Final residual = 0.000713786, No Iterations 8
time step continuity errors : sum local = 3.8669e-05, global = -1.1997e-05, cumulative = 0.000800097
smoothSolver:  Solving for ReThetat, Initial residual = 0.0217945, Final residual = 0.000445322, No Iterations 1
smoothSolver:  Solving for gammaInt, Initial residual = 0.000750192, Final residual = 1.20057e-05, No Iterations 1
smoothSolver:  Solving for omega, Initial residual = 7.47117e-06, Final residual = 4.72677e-07, No Iterations 2
smoothSolver:  Solving for k, Initial residual = 0.00205894, Final residual = 0.000155013, No Iterations 2
ExecutionTime = 1.4323 s  ClockTime = 2 s

Time = 28s

smoothSolver:  Solving for Ux, Initial residual = 0.000993045, Final residual = 9.39442e-05, No Iterations 5
smoothSolver:  Solving for Uy, Initial residual = 0.00133298, Final residual = 0.000108761, No Iterations 3
GAMG:  Solving for p, Initial residual = 0.0104294, Final residual = 0.00103903, No Iterations 8
time step continuity errors : sum local = 4.12008e-05, global = -1.5349e-05, cumulative = 0.000784748
smoothSolver:  Solving for ReThetat, Initial residual = 0.0192751, Final residual = 0.000394406, No Iterations 1
smoothSolver:  Solving for gammaInt, Initial residual = 0.000984914, Final residual = 1.51766e-05, No Iterations 1
smoothSolver:  Solving for omega, Initial residual = 6.43014e-06, Final residual = 4.15759e-07, No Iterations 2
smoothSolver:  Solving for k, Initial residual = 0.00164193, Final residual = 0.000144085, No Iterations 2
ExecutionTime = 1.47578 s  ClockTime = 2 s

Time = 29s

smoothSolver:  Solving for Ux, Initial residual = 0.000948177, Final residual = 8.97065e-05, No Iterations 5
smoothSolver:  Solving for Uy, Initial residual = 0.00125261, Final residual = 9.93932e-05, No Iterations 3
GAMG:  Solving for p, Initial residual = 0.016096, Final residual = 0.00143399, No Iterations 10
time step continuity errors : sum local = 3.50809e-05, global = -1.05703e-05, cumulative = 0.000774177
smoothSolver:  Solving for ReThetat, Initial residual = 0.0168565, Final residual = 0.000348863, No Iterations 1
smoothSolver:  Solving for gammaInt, Initial residual = 0.00119665, Final residual = 1.84419e-05, No Iterations 1
smoothSolver:  Solving for omega, Initial residual = 5.50392e-06, Final residual = 3.72855e-07, No Iterations 2
smoothSolver:  Solving for k, Initial residual = 0.00143509, Final residual = 0.000138772, No Iterations 2
ExecutionTime = 1.52008 s  ClockTime = 2 s

Time = 30s

smoothSolver:  Solving for Ux, Initial residual = 0.000908351, Final residual = 8.5767e-05, No Iterations 5
smoothSolver:  Solving for Uy, Initial residual = 0.00118303, Final residual = 9.12608e-05, No Iterations 3
GAMG:  Solving for p, Initial residual = 0.0233332, Final residual = 0.00193734, No Iterations 10
time step continuity errors : sum local = 3.10342e-05, global = -9.45858e-06, cumulative = 0.000764719
smoothSolver:  Solving for ReThetat, Initial residual = 0.0146212, Final residual = 0.000310184, No Iterations 1
smoothSolver:  Solving for gammaInt, Initial residual = 0.00139029, Final residual = 2.36726e-05, No Iterations 1
smoothSolver:  Solving for omega, Initial residual = 4.77708e-06, Final residual = 3.41052e-07, No Iterations 2
smoothSolver:  Solving for k, Initial residual = 0.00130948, Final residual = 7.09206e-05, No Iterations 3
ExecutionTime = 1.56698 s  ClockTime = 2 s

Time = 31s

smoothSolver:  Solving for Ux, Initial residual = 0.000869498, Final residual = 8.21766e-05, No Iterations 5
smoothSolver:  Solving for Uy, Initial residual = 0.00110761, Final residual = 8.39804e-05, No Iterations 3
GAMG:  Solving for p, Initial residual = 0.0113115, Final residual = 0.00098303, No Iterations 10
time step continuity errors : sum local = 3.0986e-05, global = -9.47589e-06, cumulative = 0.000755243
smoothSolver:  Solving for ReThetat, Initial residual = 0.012648, Final residual = 0.000282445, No Iterations 1
smoothSolver:  Solving for gammaInt, Initial residual = 0.00199009, Final residual = 2.97057e-05, No Iterations 1
smoothSolver:  Solving for omega, Initial residual = 4.14902e-06, Final residual = 3.15425e-07, No Iterations 2
smoothSolver:  Solving for k, Initial residual = 0.00121886, Final residual = 7.21442e-05, No Iterations 3
ExecutionTime = 1.61307 s  ClockTime = 2 s

Time = 32s

smoothSolver:  Solving for Ux, Initial residual = 0.000836204, Final residual = 7.88704e-05, No Iterations 5
smoothSolver:  Solving for Uy, Initial residual = 0.00103809, Final residual = 7.79401e-05, No Iterations 3
GAMG:  Solving for p, Initial residual = 0.00734519, Final residual = 0.000616343, No Iterations 10
time step continuity errors : sum local = 2.88431e-05, global = -1.02634e-05, cumulative = 0.000744979
smoothSolver:  Solving for ReThetat, Initial residual = 0.0109097, Final residual = 0.000258335, No Iterations 1
smoothSolver:  Solving for gammaInt, Initial residual = 0.00211535, Final residual = 2.98213e-05, No Iterations 1
smoothSolver:  Solving for omega, Initial residual = 3.64108e-06, Final residual = 2.94927e-07, No Iterations 2
smoothSolver:  Solving for k, Initial residual = 0.00114907, Final residual = 7.42702e-05, No Iterations 3
ExecutionTime = 1.65758 s  ClockTime = 2 s

Time = 33s

smoothSolver:  Solving for Ux, Initial residual = 0.000802693, Final residual = 7.58802e-05, No Iterations 5
smoothSolver:  Solving for Uy, Initial residual = 0.000970474, Final residual = 7.29376e-05, No Iterations 3
GAMG:  Solving for p, Initial residual = 0.00531134, Final residual = 0.000497065, No Iterations 10
time step continuity errors : sum local = 3.04881e-05, global = -1.02978e-05, cumulative = 0.000734682
smoothSolver:  Solving for ReThetat, Initial residual = 0.00942833, Final residual = 0.000238117, No Iterations 1
smoothSolver:  Solving for gammaInt, Initial residual = 0.00218702, Final residual = 3.23836e-05, No Iterations 1
smoothSolver:  Solving for omega, Initial residual = 3.21514e-06, Final residual = 2.78086e-07, No Iterations 2
smoothSolver:  Solving for k, Initial residual = 0.00109145, Final residual = 7.69988e-05, No Iterations 3
ExecutionTime = 1.70192 s  ClockTime = 2 s

Time = 34s

smoothSolver:  Solving for Ux, Initial residual = 0.000774253, Final residual = 7.31357e-05, No Iterations 5
smoothSolver:  Solving for Uy, Initial residual = 0.000908359, Final residual = 6.92021e-05, No Iterations 3
GAMG:  Solving for p, Initial residual = 0.00415964, Final residual = 0.000364429, No Iterations 10
time step continuity errors : sum local = 2.74984e-05, global = -9.7602e-06, cumulative = 0.000724921
smoothSolver:  Solving for ReThetat, Initial residual = 0.00816801, Final residual = 0.000220902, No Iterations 1
smoothSolver:  Solving for gammaInt, Initial residual = 0.00222784, Final residual = 3.35751e-05, No Iterations 1
smoothSolver:  Solving for omega, Initial residual = 2.86885e-06, Final residual = 2.64048e-07, No Iterations 2
smoothSolver:  Solving for k, Initial residual = 0.00104168, Final residual = 7.97733e-05, No Iterations 3
ExecutionTime = 1.74775 s  ClockTime = 2 s

Time = 35s

smoothSolver:  Solving for Ux, Initial residual = 0.000744849, Final residual = 7.05719e-05, No Iterations 5
smoothSolver:  Solving for Uy, Initial residual = 0.00085144, Final residual = 6.64176e-05, No Iterations 3
GAMG:  Solving for p, Initial residual = 0.00334591, Final residual = 0.000310464, No Iterations 10
time step continuity errors : sum local = 2.75011e-05, global = -8.85322e-06, cumulative = 0.000716068
smoothSolver:  Solving for ReThetat, Initial residual = 0.00709531, Final residual = 0.000206192, No Iterations 1
smoothSolver:  Solving for gammaInt, Initial residual = 0.00227846, Final residual = 3.96432e-05, No Iterations 1
smoothSolver:  Solving for omega, Initial residual = 2.57757e-06, Final residual = 2.52062e-07, No Iterations 2
smoothSolver:  Solving for k, Initial residual = 0.000997343, Final residual = 8.24188e-05, No Iterations 3
ExecutionTime = 1.79322 s  ClockTime = 2 s

Time = 36s

smoothSolver:  Solving for Ux, Initial residual = 0.000719508, Final residual = 6.82e-05, No Iterations 5
smoothSolver:  Solving for Uy, Initial residual = 0.000799425, Final residual = 6.43052e-05, No Iterations 3
GAMG:  Solving for p, Initial residual = 0.00283144, Final residual = 0.00024632, No Iterations 10
time step continuity errors : sum local = 2.48369e-05, global = -7.41523e-06, cumulative = 0.000708653
smoothSolver:  Solving for ReThetat, Initial residual = 0.00617179, Final residual = 0.000193581, No Iterations 1
smoothSolver:  Solving for gammaInt, Initial residual = 0.00228945, Final residual = 4.41246e-05, No Iterations 1
smoothSolver:  Solving for omega, Initial residual = 2.33662e-06, Final residual = 9.77089e-08, No Iterations 3
smoothSolver:  Solving for k, Initial residual = 0.000952572, Final residual = 8.41597e-05, No Iterations 3
ExecutionTime = 1.83747 s  ClockTime = 2 s

Time = 37s

smoothSolver:  Solving for Ux, Initial residual = 0.000693465, Final residual = 6.59487e-05, No Iterations 5
smoothSolver:  Solving for Uy, Initial residual = 0.000754507, Final residual = 6.25824e-05, No Iterations 3
GAMG:  Solving for p, Initial residual = 0.00239633, Final residual = 0.000212076, No Iterations 10
time step continuity errors : sum local = 2.37328e-05, global = -6.00266e-06, cumulative = 0.00070265
smoothSolver:  Solving for ReThetat, Initial residual = 0.00535879, Final residual = 0.000182462, No Iterations 1
smoothSolver:  Solving for gammaInt, Initial residual = 0.00225469, Final residual = 4.07475e-05, No Iterations 1
smoothSolver:  Solving for omega, Initial residual = 1.99016e-06, Final residual = 8.62767e-08, No Iterations 3
smoothSolver:  Solving for k, Initial residual = 0.000911959, Final residual = 8.58381e-05, No Iterations 3
ExecutionTime = 1.88348 s  ClockTime = 2 s

Time = 38s

smoothSolver:  Solving for Ux, Initial residual = 0.000670635, Final residual = 6.38526e-05, No Iterations 5
smoothSolver:  Solving for Uy, Initial residual = 0.000715689, Final residual = 6.10462e-05, No Iterations 3
GAMG:  Solving for p, Initial residual = 0.0021166, Final residual = 0.000173884, No Iterations 10
time step continuity errors : sum local = 2.12089e-05, global = -4.75387e-06, cumulative = 0.000697896
smoothSolver:  Solving for ReThetat, Initial residual = 0.0046312, Final residual = 0.000172739, No Iterations 1
smoothSolver:  Solving for gammaInt, Initial residual = 0.00222524, Final residual = 4.60819e-05, No Iterations 1
smoothSolver:  Solving for omega, Initial residual = 1.82945e-06, Final residual = 8.27346e-08, No Iterations 3
smoothSolver:  Solving for k, Initial residual = 0.000876849, Final residual = 4.83373e-05, No Iterations 4
ExecutionTime = 1.93022 s  ClockTime = 2 s

Time = 39s

smoothSolver:  Solving for Ux, Initial residual = 0.000647535, Final residual = 6.18154e-05, No Iterations 5
smoothSolver:  Solving for Uy, Initial residual = 0.000684606, Final residual = 5.95253e-05, No Iterations 3
GAMG:  Solving for p, Initial residual = 0.0018726, Final residual = 0.000154135, No Iterations 10
time step continuity errors : sum local = 2.01666e-05, global = -3.9586e-06, cumulative = 0.000693938
smoothSolver:  Solving for ReThetat, Initial residual = 0.00396584, Final residual = 0.000165166, No Iterations 1
smoothSolver:  Solving for gammaInt, Initial residual = 0.00232875, Final residual = 5.83696e-05, No Iterations 1
smoothSolver:  Solving for omega, Initial residual = 1.67238e-06, Final residual = 8.0037e-08, No Iterations 3
smoothSolver:  Solving for k, Initial residual = 0.00084667, Final residual = 4.95777e-05, No Iterations 4
ExecutionTime = 1.97627 s  ClockTime = 2 s

Time = 40s

smoothSolver:  Solving for Ux, Initial residual = 0.000626728, Final residual = 5.99227e-05, No Iterations 5
smoothSolver:  Solving for Uy, Initial residual = 0.000657567, Final residual = 5.78424e-05, No Iterations 3
GAMG:  Solving for p, Initial residual = 0.00170917, Final residual = 0.000130186, No Iterations 10
time step continuity errors : sum local = 1.80428e-05, global = -3.28566e-06, cumulative = 0.000690652
smoothSolver:  Solving for ReThetat, Initial residual = 0.00336145, Final residual = 0.000158845, No Iterations 1
smoothSolver:  Solving for gammaInt, Initial residual = 0.00253332, Final residual = 7.1558e-05, No Iterations 1
smoothSolver:  Solving for omega, Initial residual = 1.54803e-06, Final residual = 7.78935e-08, No Iterations 3
smoothSolver:  Solving for k, Initial residual = 0.00082093, Final residual = 5.08622e-05, No Iterations 4
ExecutionTime = 2.02122 s  ClockTime = 2 s

Time = 41s

smoothSolver:  Solving for Ux, Initial residual = 0.000606041, Final residual = 5.80828e-05, No Iterations 5
smoothSolver:  Solving for Uy, Initial residual = 0.000636538, Final residual = 5.59415e-05, No Iterations 3
GAMG:  Solving for p, Initial residual = 0.00155487, Final residual = 0.000119061, No Iterations 10
time step continuity errors : sum local = 1.72768e-05, global = -3.15137e-06, cumulative = 0.000687501
smoothSolver:  Solving for ReThetat, Initial residual = 0.002841, Final residual = 0.000153803, No Iterations 1
smoothSolver:  Solving for gammaInt, Initial residual = 0.00275889, Final residual = 8.54824e-05, No Iterations 1
smoothSolver:  Solving for omega, Initial residual = 1.43404e-06, Final residual = 7.59104e-08, No Iterations 3
smoothSolver:  Solving for k, Initial residual = 0.000799756, Final residual = 5.22104e-05, No Iterations 4
ExecutionTime = 2.06881 s  ClockTime = 2 s

Time = 42s

smoothSolver:  Solving for Ux, Initial residual = 0.000587048, Final residual = 5.63781e-05, No Iterations 5
smoothSolver:  Solving for Uy, Initial residual = 0.000617849, Final residual = 5.37499e-05, No Iterations 3
GAMG:  Solving for p, Initial residual = 0.00145473, Final residual = 0.000144993, No Iterations 8
time step continuity errors : sum local = 2.18451e-05, global = -4.37768e-06, cumulative = 0.000683123
smoothSolver:  Solving for ReThetat, Initial residual = 0.00241893, Final residual = 0.000150037, No Iterations 1
smoothSolver:  Solving for gammaInt, Initial residual = 0.00311526, Final residual = 0.000110259, No Iterations 1
smoothSolver:  Solving for omega, Initial residual = 1.33684e-06, Final residual = 7.42469e-08, No Iterations 3
smoothSolver:  Solving for k, Initial residual = 0.000783989, Final residual = 5.37149e-05, No Iterations 4
ExecutionTime = 2.11283 s  ClockTime = 3 s

Time = 43s

smoothSolver:  Solving for Ux, Initial residual = 0.000568261, Final residual = 5.47124e-05, No Iterations 5
smoothSolver:  Solving for Uy, Initial residual = 0.000600976, Final residual = 5.12434e-05, No Iterations 3
GAMG:  Solving for p, Initial residual = 0.0013645, Final residual = 0.000119624, No Iterations 10
time step continuity errors : sum local = 1.85261e-05, global = -3.36466e-06, cumulative = 0.000679758
smoothSolver:  Solving for ReThetat, Initial residual = 0.00210648, Final residual = 0.000147211, No Iterations 1
smoothSolver:  Solving for gammaInt, Initial residual = 0.00377238, Final residual = 0.00015535, No Iterations 1
smoothSolver:  Solving for omega, Initial residual = 1.24984e-06, Final residual = 7.28552e-08, No Iterations 3
smoothSolver:  Solving for k, Initial residual = 0.000774738, Final residual = 5.55026e-05, No Iterations 4
ExecutionTime = 2.15942 s  ClockTime = 3 s

Time = 44s

smoothSolver:  Solving for Ux, Initial residual = 0.000551738, Final residual = 5.31885e-05, No Iterations 5
smoothSolver:  Solving for Uy, Initial residual = 0.000592998, Final residual = 4.85872e-05, No Iterations 3
GAMG:  Solving for p, Initial residual = 0.00128268, Final residual = 0.000106173, No Iterations 10
time step continuity errors : sum local = 1.69041e-05, global = -3.12131e-06, cumulative = 0.000676637
smoothSolver:  Solving for ReThetat, Initial residual = 0.00191029, Final residual = 0.000145014, No Iterations 1
smoothSolver:  Solving for gammaInt, Initial residual = 0.00595754, Final residual = 0.000306497, No Iterations 1
smoothSolver:  Solving for omega, Initial residual = 1.17313e-06, Final residual = 7.17602e-08, No Iterations 3
smoothSolver:  Solving for k, Initial residual = 0.000778795, Final residual = 5.82256e-05, No Iterations 4
ExecutionTime = 2.20593 s  ClockTime = 3 s

Time = 45s

smoothSolver:  Solving for Ux, Initial residual = 0.000535546, Final residual = 5.17004e-05, No Iterations 5
smoothSolver:  Solving for Uy, Initial residual = 0.000585171, Final residual = 4.57584e-05, No Iterations 3
GAMG:  Solving for p, Initial residual = 0.00121397, Final residual = 0.000105129, No Iterations 10
time step continuity errors : sum local = 1.70533e-05, global = -3.22788e-06, cumulative = 0.000673409
smoothSolver:  Solving for ReThetat, Initial residual = 0.00183522, Final residual = 0.000143052, No Iterations 1
smoothSolver:  Solving for gammaInt, Initial residual = 0.00843276, Final residual = 0.000400736, No Iterations 1
smoothSolver:  Solving for omega, Initial residual = 1.10269e-06, Final residual = 7.10884e-08, No Iterations 3
smoothSolver:  Solving for k, Initial residual = 0.000791227, Final residual = 6.14316e-05, No Iterations 4
ExecutionTime = 2.25294 s  ClockTime = 3 s

Time = 46s

smoothSolver:  Solving for Ux, Initial residual = 0.000520308, Final residual = 5.03573e-05, No Iterations 5
smoothSolver:  Solving for Uy, Initial residual = 0.000576119, Final residual = 4.28525e-05, No Iterations 3
GAMG:  Solving for p, Initial residual = 0.00115885, Final residual = 0.000103248, No Iterations 10
time step continuity errors : sum local = 1.70017e-05, global = -3.19357e-06, cumulative = 0.000670216
smoothSolver:  Solving for ReThetat, Initial residual = 0.00188635, Final residual = 0.000141139, No Iterations 1
smoothSolver:  Solving for gammaInt, Initial residual = 0.00570535, Final residual = 0.00017105, No Iterations 1
smoothSolver:  Solving for omega, Initial residual = 1.03991e-06, Final residual = 7.09246e-08, No Iterations 3
smoothSolver:  Solving for k, Initial residual = 0.000790488, Final residual = 6.32654e-05, No Iterations 4
ExecutionTime = 2.30099 s  ClockTime = 3 s

Time = 47s

smoothSolver:  Solving for Ux, Initial residual = 0.000506728, Final residual = 4.90658e-05, No Iterations 5
smoothSolver:  Solving for Uy, Initial residual = 0.000568426, Final residual = 4.0024e-05, No Iterations 3
GAMG:  Solving for p, Initial residual = 0.00110947, Final residual = 0.000101768, No Iterations 10
time step continuity errors : sum local = 1.69603e-05, global = -3.21023e-06, cumulative = 0.000667005
smoothSolver:  Solving for ReThetat, Initial residual = 0.00207143, Final residual = 0.000139329, No Iterations 1
smoothSolver:  Solving for gammaInt, Initial residual = 0.00383949, Final residual = 0.000107681, No Iterations 1
smoothSolver:  Solving for omega, Initial residual = 9.86902e-07, Final residual = 7.10279e-08, No Iterations 3
smoothSolver:  Solving for k, Initial residual = 0.000786018, Final residual = 6.45916e-05, No Iterations 4
ExecutionTime = 2.34812 s  ClockTime = 3 s

Time = 48s

smoothSolver:  Solving for Ux, Initial residual = 0.000493711, Final residual = 4.79027e-05, No Iterations 5
smoothSolver:  Solving for Uy, Initial residual = 0.000560238, Final residual = 3.73465e-05, No Iterations 3
GAMG:  Solving for p, Initial residual = 0.00106276, Final residual = 9.83602e-05, No Iterations 10
time step continuity errors : sum local = 1.65572e-05, global = -3.0659e-06, cumulative = 0.00066394
smoothSolver:  Solving for ReThetat, Initial residual = 0.00229839, Final residual = 0.000137429, No Iterations 1
smoothSolver:  Solving for gammaInt, Initial residual = 0.00307262, Final residual = 9.45506e-05, No Iterations 1
smoothSolver:  Solving for omega, Initial residual = 9.40925e-07, Final residual = 7.111e-08, No Iterations 3
smoothSolver:  Solving for k, Initial residual = 0.000779727, Final residual = 6.56749e-05, No Iterations 4
ExecutionTime = 2.39455 s  ClockTime = 3 s

Time = 49s

smoothSolver:  Solving for Ux, Initial residual = 0.000482361, Final residual = 4.67872e-05, No Iterations 5
smoothSolver:  Solving for Uy, Initial residual = 0.000552315, Final residual = 3.49611e-05, No Iterations 3
GAMG:  Solving for p, Initial residual = 0.00102408, Final residual = 9.43295e-05, No Iterations 10
time step continuity errors : sum local = 1.60103e-05, global = -2.92502e-06, cumulative = 0.000661015
smoothSolver:  Solving for ReThetat, Initial residual = 0.00244006, Final residual = 0.000135332, No Iterations 1
smoothSolver:  Solving for gammaInt, Initial residual = 0.00278975, Final residual = 8.53952e-05, No Iterations 1
smoothSolver:  Solving for omega, Initial residual = 9.00123e-07, Final residual = 7.1067e-08, No Iterations 3
smoothSolver:  Solving for k, Initial residual = 0.00077163, Final residual = 6.65444e-05, No Iterations 4
ExecutionTime = 2.44147 s  ClockTime = 3 s

Time = 50s

smoothSolver:  Solving for Ux, Initial residual = 0.000471835, Final residual = 4.57779e-05, No Iterations 5
smoothSolver:  Solving for Uy, Initial residual = 0.000543383, Final residual = 3.28715e-05, No Iterations 3
GAMG:  Solving for p, Initial residual = 0.000979989, Final residual = 8.9769e-05, No Iterations 10
time step continuity errors : sum local = 1.53516e-05, global = -2.67702e-06, cumulative = 0.000658338
smoothSolver:  Solving for ReThetat, Initial residual = 0.0024809, Final residual = 0.000132863, No Iterations 1
smoothSolver:  Solving for gammaInt, Initial residual = 0.00247644, Final residual = 7.26508e-05, No Iterations 1
smoothSolver:  Solving for omega, Initial residual = 8.64914e-07, Final residual = 7.08255e-08, No Iterations 3
smoothSolver:  Solving for k, Initial residual = 0.00076177, Final residual = 6.72104e-05, No Iterations 4
ExecutionTime = 2.48932 s  ClockTime = 3 s

Time = 51s

smoothSolver:  Solving for Ux, Initial residual = 0.000463067, Final residual = 4.48249e-05, No Iterations 5
smoothSolver:  Solving for Uy, Initial residual = 0.000533737, Final residual = 3.10893e-05, No Iterations 3
GAMG:  Solving for p, Initial residual = 0.000950084, Final residual = 8.52542e-05, No Iterations 10
time step continuity errors : sum local = 1.46797e-05, global = -2.46291e-06, cumulative = 0.000655875
smoothSolver:  Solving for ReThetat, Initial residual = 0.00243887, Final residual = 0.00013015, No Iterations 1
smoothSolver:  Solving for gammaInt, Initial residual = 0.00226295, Final residual = 6.81975e-05, No Iterations 1
smoothSolver:  Solving for omega, Initial residual = 8.36881e-07, Final residual = 7.03915e-08, No Iterations 3
smoothSolver:  Solving for k, Initial residual = 0.000751005, Final residual = 6.7727e-05, No Iterations 4
ExecutionTime = 2.53811 s  ClockTime = 3 s

Time = 52s

smoothSolver:  Solving for Ux, Initial residual = 0.000455013, Final residual = 4.39726e-05, No Iterations 5
smoothSolver:  Solving for Uy, Initial residual = 0.000523089, Final residual = 2.95972e-05, No Iterations 3
GAMG:  Solving for p, Initial residual = 0.000914098, Final residual = 8.09298e-05, No Iterations 10
time step continuity errors : sum local = 1.40348e-05, global = -2.2227e-06, cumulative = 0.000653652
smoothSolver:  Solving for ReThetat, Initial residual = 0.00232593, Final residual = 0.000127371, No Iterations 1
smoothSolver:  Solving for gammaInt, Initial residual = 0.00218285, Final residual = 7.20784e-05, No Iterations 1
smoothSolver:  Solving for omega, Initial residual = 8.13494e-07, Final residual = 6.98228e-08, No Iterations 3
smoothSolver:  Solving for k, Initial residual = 0.000740204, Final residual = 6.81561e-05, No Iterations 4
ExecutionTime = 2.58772 s  ClockTime = 3 s

Time = 53s

smoothSolver:  Solving for Ux, Initial residual = 0.000448473, Final residual = 4.31765e-05, No Iterations 5
smoothSolver:  Solving for Uy, Initial residual = 0.000511856, Final residual = 2.83407e-05, No Iterations 3
GAMG:  Solving for p, Initial residual = 0.000893389, Final residual = 7.68779e-05, No Iterations 10
time step continuity errors : sum local = 1.34308e-05, global = -2.04279e-06, cumulative = 0.000651609
smoothSolver:  Solving for ReThetat, Initial residual = 0.00215549, Final residual = 0.000124547, No Iterations 1
smoothSolver:  Solving for gammaInt, Initial residual = 0.0023562, Final residual = 9.23074e-05, No Iterations 1
smoothSolver:  Solving for omega, Initial residual = 7.94503e-07, Final residual = 6.91405e-08, No Iterations 3
smoothSolver:  Solving for k, Initial residual = 0.00073054, Final residual = 6.85851e-05, No Iterations 4
ExecutionTime = 2.63447 s  ClockTime = 3 s

Time = 54s

smoothSolver:  Solving for Ux, Initial residual = 0.000442306, Final residual = 4.24558e-05, No Iterations 5
smoothSolver:  Solving for Uy, Initial residual = 0.000500321, Final residual = 2.72937e-05, No Iterations 3
GAMG:  Solving for p, Initial residual = 0.000864244, Final residual = 7.33776e-05, No Iterations 10
time step continuity errors : sum local = 1.29271e-05, global = -1.8632e-06, cumulative = 0.000649746
smoothSolver:  Solving for ReThetat, Initial residual = 0.00195166, Final residual = 0.000121765, No Iterations 1
smoothSolver:  Solving for gammaInt, Initial residual = 0.00274215, Final residual = 0.000121509, No Iterations 1
smoothSolver:  Solving for omega, Initial residual = 7.78312e-07, Final residual = 6.83491e-08, No Iterations 3
smoothSolver:  Solving for k, Initial residual = 0.000722171, Final residual = 6.9e-05, No Iterations 4
ExecutionTime = 2.68257 s  ClockTime = 3 s

Time = 55s

smoothSolver:  Solving for Ux, Initial residual = 0.000437118, Final residual = 4.17888e-05, No Iterations 5
smoothSolver:  Solving for Uy, Initial residual = 0.000488544, Final residual = 2.63894e-05, No Iterations 3
GAMG:  Solving for p, Initial residual = 0.000847376, Final residual = 7.02066e-05, No Iterations 10
time step continuity errors : sum local = 1.24832e-05, global = -1.73503e-06, cumulative = 0.000648011
smoothSolver:  Solving for ReThetat, Initial residual = 0.00172833, Final residual = 0.000119008, No Iterations 1
smoothSolver:  Solving for gammaInt, Initial residual = 0.00299086, Final residual = 0.000145141, No Iterations 1
smoothSolver:  Solving for omega, Initial residual = 7.65386e-07, Final residual = 6.75048e-08, No Iterations 3
smoothSolver:  Solving for k, Initial residual = 0.000714864, Final residual = 6.9404e-05, No Iterations 4
ExecutionTime = 2.72826 s  ClockTime = 3 s

Time = 56s

smoothSolver:  Solving for Ux, Initial residual = 0.000432119, Final residual = 4.11832e-05, No Iterations 5
smoothSolver:  Solving for Uy, Initial residual = 0.000477147, Final residual = 2.56058e-05, No Iterations 3
GAMG:  Solving for p, Initial residual = 0.000821734, Final residual = 6.64068e-05, No Iterations 10
time step continuity errors : sum local = 1.19338e-05, global = -1.60187e-06, cumulative = 0.000646409
smoothSolver:  Solving for ReThetat, Initial residual = 0.00150021, Final residual = 0.000116278, No Iterations 1
smoothSolver:  Solving for gammaInt, Initial residual = 0.00331289, Final residual = 0.000181443, No Iterations 1
smoothSolver:  Solving for omega, Initial residual = 7.53975e-07, Final residual = 6.66657e-08, No Iterations 3
smoothSolver:  Solving for k, Initial residual = 0.000709417, Final residual = 6.98879e-05, No Iterations 4
ExecutionTime = 2.77473 s  ClockTime = 3 s

Time = 57s

smoothSolver:  Solving for Ux, Initial residual = 0.000427829, Final residual = 4.06239e-05, No Iterations 5
smoothSolver:  Solving for Uy, Initial residual = 0.000465722, Final residual = 4.63652e-05, No Iterations 2
GAMG:  Solving for p, Initial residual = 0.000813332, Final residual = 6.35682e-05, No Iterations 10
time step continuity errors : sum local = 1.15603e-05, global = -1.4848e-06, cumulative = 0.000644924
smoothSolver:  Solving for ReThetat, Initial residual = 0.0012794, Final residual = 0.000113608, No Iterations 1
smoothSolver:  Solving for gammaInt, Initial residual = 0.00449307, Final residual = 0.000274677, No Iterations 1
smoothSolver:  Solving for omega, Initial residual = 7.43821e-07, Final residual = 6.58157e-08, No Iterations 3
smoothSolver:  Solving for k, Initial residual = 0.000708564, Final residual = 7.07182e-05, No Iterations 4
ExecutionTime = 2.82144 s  ClockTime = 3 s

Time = 58s

smoothSolver:  Solving for Ux, Initial residual = 0.000423637, Final residual = 4.01161e-05, No Iterations 5
smoothSolver:  Solving for Uy, Initial residual = 0.000459478, Final residual = 2.49458e-05, No Iterations 3
GAMG:  Solving for p, Initial residual = 0.000883047, Final residual = 8.4156e-05, No Iterations 8
time step continuity errors : sum local = 1.5528e-05, global = -2.62838e-06, cumulative = 0.000642296
smoothSolver:  Solving for ReThetat, Initial residual = 0.00107583, Final residual = 5.97457e-05, No Iterations 2
smoothSolver:  Solving for gammaInt, Initial residual = 0.00471126, Final residual = 0.000280865, No Iterations 1
smoothSolver:  Solving for omega, Initial residual = 7.35752e-07, Final residual = 6.5011e-08, No Iterations 3
smoothSolver:  Solving for k, Initial residual = 0.000707688, Final residual = 4.07798e-05, No Iterations 5
ExecutionTime = 2.86634 s  ClockTime = 3 s

Time = 59s

smoothSolver:  Solving for Ux, Initial residual = 0.000420684, Final residual = 3.96802e-05, No Iterations 5
smoothSolver:  Solving for Uy, Initial residual = 0.000443392, Final residual = 4.41211e-05, No Iterations 2
GAMG:  Solving for p, Initial residual = 0.00077745, Final residual = 6.80428e-05, No Iterations 10
time step continuity errors : sum local = 1.27104e-05, global = -1.54521e-06, cumulative = 0.000640751
smoothSolver:  Solving for ReThetat, Initial residual = 0.000883797, Final residual = 5.7852e-05, No Iterations 2
smoothSolver:  Solving for gammaInt, Initial residual = 0.00502816, Final residual = 0.000277418, No Iterations 1
smoothSolver:  Solving for omega, Initial residual = 7.34657e-07, Final residual = 6.42869e-08, No Iterations 3
smoothSolver:  Solving for k, Initial residual = 0.000705603, Final residual = 4.11471e-05, No Iterations 5
ExecutionTime = 2.91346 s  ClockTime = 3 s

Time = 60s

smoothSolver:  Solving for Ux, Initial residual = 0.00041837, Final residual = 3.92722e-05, No Iterations 5
smoothSolver:  Solving for Uy, Initial residual = 0.000440179, Final residual = 4.38112e-05, No Iterations 2
GAMG:  Solving for p, Initial residual = 0.000717631, Final residual = 5.95033e-05, No Iterations 10
time step continuity errors : sum local = 1.13288e-05, global = -1.408e-06, cumulative = 0.000639343
smoothSolver:  Solving for ReThetat, Initial residual = 0.00072334, Final residual = 5.62364e-05, No Iterations 2
smoothSolver:  Solving for gammaInt, Initial residual = 0.00323242, Final residual = 0.000139247, No Iterations 1
smoothSolver:  Solving for omega, Initial residual = 7.31439e-07, Final residual = 6.37442e-08, No Iterations 3
smoothSolver:  Solving for k, Initial residual = 0.000695737, Final residual = 4.10387e-05, No Iterations 5
ExecutionTime = 2.96117 s  ClockTime = 3 s

Time = 61s

smoothSolver:  Solving for Ux, Initial residual = 0.000415164, Final residual = 3.88693e-05, No Iterations 5
smoothSolver:  Solving for Uy, Initial residual = 0.000432314, Final residual = 4.29332e-05, No Iterations 2
GAMG:  Solving for p, Initial residual = 0.000704886, Final residual = 5.72605e-05, No Iterations 10
time step continuity errors : sum local = 1.10858e-05, global = -1.39936e-06, cumulative = 0.000637943
smoothSolver:  Solving for ReThetat, Initial residual = 0.000590125, Final residual = 5.47903e-05, No Iterations 2
smoothSolver:  Solving for gammaInt, Initial residual = 0.00230684, Final residual = 9.58955e-05, No Iterations 1
smoothSolver:  Solving for omega, Initial residual = 7.26688e-07, Final residual = 6.31646e-08, No Iterations 3
smoothSolver:  Solving for k, Initial residual = 0.000682353, Final residual = 4.06753e-05, No Iterations 5
ExecutionTime = 3.00931 s  ClockTime = 3 s

Time = 62s

smoothSolver:  Solving for Ux, Initial residual = 0.00041113, Final residual = 3.84526e-05, No Iterations 5
smoothSolver:  Solving for Uy, Initial residual = 0.00042318, Final residual = 4.17916e-05, No Iterations 2
GAMG:  Solving for p, Initial residual = 0.000682246, Final residual = 5.64223e-05, No Iterations 10
time step continuity errors : sum local = 1.1119e-05, global = -1.40112e-06, cumulative = 0.000636542
smoothSolver:  Solving for ReThetat, Initial residual = 0.000482028, Final residual = 3.26332e-05, No Iterations 3
smoothSolver:  Solving for gammaInt, Initial residual = 0.00188889, Final residual = 8.02512e-05, No Iterations 1
smoothSolver:  Solving for omega, Initial residual = 7.16372e-07, Final residual = 6.24468e-08, No Iterations 3
smoothSolver:  Solving for k, Initial residual = 0.00066726, Final residual = 4.01693e-05, No Iterations 5
ExecutionTime = 3.0561 s  ClockTime = 3 s

Time = 63s

smoothSolver:  Solving for Ux, Initial residual = 0.000406775, Final residual = 3.80133e-05, No Iterations 5
smoothSolver:  Solving for Uy, Initial residual = 0.000414202, Final residual = 4.04809e-05, No Iterations 2
GAMG:  Solving for p, Initial residual = 0.00066635, Final residual = 5.58228e-05, No Iterations 10
time step continuity errors : sum local = 1.12058e-05, global = -1.40848e-06, cumulative = 0.000635134
smoothSolver:  Solving for ReThetat, Initial residual = 0.0003947, Final residual = 3.16335e-05, No Iterations 3
smoothSolver:  Solving for gammaInt, Initial residual = 0.00166877, Final residual = 7.30992e-05, No Iterations 1
smoothSolver:  Solving for omega, Initial residual = 7.01842e-07, Final residual = 6.15685e-08, No Iterations 3
smoothSolver:  Solving for k, Initial residual = 0.000651464, Final residual = 3.95889e-05, No Iterations 5
ExecutionTime = 3.10401 s  ClockTime = 4 s

Time = 64s

smoothSolver:  Solving for Ux, Initial residual = 0.000401638, Final residual = 3.75531e-05, No Iterations 5
smoothSolver:  Solving for Uy, Initial residual = 0.000406142, Final residual = 3.90637e-05, No Iterations 2
GAMG:  Solving for p, Initial residual = 0.00064424, Final residual = 5.51651e-05, No Iterations 10
time step continuity errors : sum local = 1.12875e-05, global = -1.41284e-06, cumulative = 0.000633721
smoothSolver:  Solving for ReThetat, Initial residual = 0.000327722, Final residual = 3.07234e-05, No Iterations 3
smoothSolver:  Solving for gammaInt, Initial residual = 0.00144994, Final residual = 6.42288e-05, No Iterations 1
smoothSolver:  Solving for omega, Initial residual = 6.8387e-07, Final residual = 6.05502e-08, No Iterations 3
smoothSolver:  Solving for k, Initial residual = 0.000635036, Final residual = 3.89365e-05, No Iterations 5
ExecutionTime = 3.1508 s  ClockTime = 4 s

Time = 65s

smoothSolver:  Solving for Ux, Initial residual = 0.000396062, Final residual = 3.70722e-05, No Iterations 5
smoothSolver:  Solving for Uy, Initial residual = 0.0003981, Final residual = 3.75385e-05, No Iterations 2
GAMG:  Solving for p, Initial residual = 0.000627696, Final residual = 5.43437e-05, No Iterations 10
time step continuity errors : sum local = 1.13378e-05, global = -1.41071e-06, cumulative = 0.00063231
smoothSolver:  Solving for ReThetat, Initial residual = 0.00027811, Final residual = 1.8896e-05, No Iterations 4
smoothSolver:  Solving for gammaInt, Initial residual = 0.00126086, Final residual = 5.85511e-05, No Iterations 1
smoothSolver:  Solving for omega, Initial residual = 6.63294e-07, Final residual = 5.94047e-08, No Iterations 3
smoothSolver:  Solving for k, Initial residual = 0.000618137, Final residual = 3.82187e-05, No Iterations 5
ExecutionTime = 3.1995 s  ClockTime = 4 s

Time = 66s

smoothSolver:  Solving for Ux, Initial residual = 0.000389745, Final residual = 3.65686e-05, No Iterations 5
smoothSolver:  Solving for Uy, Initial residual = 0.000390375, Final residual = 3.59654e-05, No Iterations 2
GAMG:  Solving for p, Initial residual = 0.000608913, Final residual = 5.32539e-05, No Iterations 10
time step continuity errors : sum local = 1.13325e-05, global = -1.40455e-06, cumulative = 0.000630906
smoothSolver:  Solving for ReThetat, Initial residual = 0.000242069, Final residual = 1.83406e-05, No Iterations 4
smoothSolver:  Solving for gammaInt, Initial residual = 0.00113569, Final residual = 5.58211e-05, No Iterations 1
smoothSolver:  Solving for omega, Initial residual = 6.40075e-07, Final residual = 5.81288e-08, No Iterations 3
smoothSolver:  Solving for k, Initial residual = 0.000600863, Final residual = 3.74392e-05, No Iterations 5
ExecutionTime = 3.24718 s  ClockTime = 4 s

Time = 67s

smoothSolver:  Solving for Ux, Initial residual = 0.000383265, Final residual = 3.60493e-05, No Iterations 5
smoothSolver:  Solving for Uy, Initial residual = 0.000382341, Final residual = 3.43482e-05, No Iterations 2
GAMG:  Solving for p, Initial residual = 0.000593337, Final residual = 5.23031e-05, No Iterations 10
time step continuity errors : sum local = 1.13531e-05, global = -1.39683e-06, cumulative = 0.000629509
smoothSolver:  Solving for ReThetat, Initial residual = 0.000218762, Final residual = 1.78309e-05, No Iterations 4
smoothSolver:  Solving for gammaInt, Initial residual = 0.00104399, Final residual = 5.61565e-05, No Iterations 1
smoothSolver:  Solving for omega, Initial residual = 6.15848e-07, Final residual = 5.67688e-08, No Iterations 3
smoothSolver:  Solving for k, Initial residual = 0.000583552, Final residual = 3.66215e-05, No Iterations 5
ExecutionTime = 3.29584 s  ClockTime = 4 s

Time = 68s

smoothSolver:  Solving for Ux, Initial residual = 0.000376627, Final residual = 3.5518e-05, No Iterations 5
smoothSolver:  Solving for Uy, Initial residual = 0.000374408, Final residual = 3.27509e-05, No Iterations 2
GAMG:  Solving for p, Initial residual = 0.000576605, Final residual = 5.10829e-05, No Iterations 10
time step continuity errors : sum local = 1.13112e-05, global = -1.3895e-06, cumulative = 0.000628119
smoothSolver:  Solving for ReThetat, Initial residual = 0.000207381, Final residual = 1.73607e-05, No Iterations 4
smoothSolver:  Solving for gammaInt, Initial residual = 0.000995626, Final residual = 5.67833e-05, No Iterations 1
smoothSolver:  Solving for omega, Initial residual = 5.91468e-07, Final residual = 5.53619e-08, No Iterations 3
smoothSolver:  Solving for k, Initial residual = 0.000566278, Final residual = 3.5773e-05, No Iterations 5
ExecutionTime = 3.34347 s  ClockTime = 4 s

Time = 69s

smoothSolver:  Solving for Ux, Initial residual = 0.000369929, Final residual = 3.49759e-05, No Iterations 5
smoothSolver:  Solving for Uy, Initial residual = 0.000366275, Final residual = 3.11702e-05, No Iterations 2
GAMG:  Solving for p, Initial residual = 0.000561706, Final residual = 5.00205e-05, No Iterations 10
time step continuity errors : sum local = 1.12968e-05, global = -1.3841e-06, cumulative = 0.000626735
smoothSolver:  Solving for ReThetat, Initial residual = 0.00020828, Final residual = 1.69299e-05, No Iterations 4
smoothSolver:  Solving for gammaInt, Initial residual = 0.000935247, Final residual = 5.71415e-05, No Iterations 1
smoothSolver:  Solving for omega, Initial residual = 5.67501e-07, Final residual = 5.39462e-08, No Iterations 3
smoothSolver:  Solving for k, Initial residual = 0.000549073, Final residual = 3.48981e-05, No Iterations 5
ExecutionTime = 3.39192 s  ClockTime = 4 s

Time = 70s

smoothSolver:  Solving for Ux, Initial residual = 0.000363164, Final residual = 3.44284e-05, No Iterations 5
smoothSolver:  Solving for Uy, Initial residual = 0.000358211, Final residual = 2.96801e-05, No Iterations 2
GAMG:  Solving for p, Initial residual = 0.000546655, Final residual = 4.86129e-05, No Iterations 10
time step continuity errors : sum local = 1.11964e-05, global = -1.37716e-06, cumulative = 0.000625358
smoothSolver:  Solving for ReThetat, Initial residual = 0.000212053, Final residual = 1.65305e-05, No Iterations 4
smoothSolver:  Solving for gammaInt, Initial residual = 0.00093328, Final residual = 5.90783e-05, No Iterations 1
smoothSolver:  Solving for omega, Initial residual = 5.43965e-07, Final residual = 5.25208e-08, No Iterations 3
smoothSolver:  Solving for k, Initial residual = 0.000532014, Final residual = 3.40036e-05, No Iterations 5
ExecutionTime = 3.4391 s  ClockTime = 4 s

Time = 71s

smoothSolver:  Solving for Ux, Initial residual = 0.00035631, Final residual = 3.38724e-05, No Iterations 5
smoothSolver:  Solving for Uy, Initial residual = 0.000350084, Final residual = 2.82824e-05, No Iterations 2
GAMG:  Solving for p, Initial residual = 0.000532887, Final residual = 4.74022e-05, No Iterations 10
time step continuity errors : sum local = 1.11305e-05, global = -1.37135e-06, cumulative = 0.000623987
smoothSolver:  Solving for ReThetat, Initial residual = 0.000213869, Final residual = 1.61541e-05, No Iterations 4
smoothSolver:  Solving for gammaInt, Initial residual = 0.000916594, Final residual = 5.81897e-05, No Iterations 1
smoothSolver:  Solving for omega, Initial residual = 5.21177e-07, Final residual = 5.1085e-08, No Iterations 3
smoothSolver:  Solving for k, Initial residual = 0.000515007, Final residual = 3.30844e-05, No Iterations 5
ExecutionTime = 3.48709 s  ClockTime = 4 s

Time = 72s

smoothSolver:  Solving for Ux, Initial residual = 0.000349465, Final residual = 3.33128e-05, No Iterations 5
smoothSolver:  Solving for Uy, Initial residual = 0.000342103, Final residual = 2.70273e-05, No Iterations 2
GAMG:  Solving for p, Initial residual = 0.000518659, Final residual = 4.58716e-05, No Iterations 10
time step continuity errors : sum local = 1.09782e-05, global = -1.36025e-06, cumulative = 0.000622626
smoothSolver:  Solving for ReThetat, Initial residual = 0.00021437, Final residual = 1.57986e-05, No Iterations 4
smoothSolver:  Solving for gammaInt, Initial residual = 0.000882673, Final residual = 5.77462e-05, No Iterations 1
smoothSolver:  Solving for omega, Initial residual = 4.98913e-07, Final residual = 4.9671e-08, No Iterations 3
smoothSolver:  Solving for k, Initial residual = 0.000498133, Final residual = 3.21507e-05, No Iterations 5
ExecutionTime = 3.53464 s  ClockTime = 4 s

Time = 73s

smoothSolver:  Solving for Ux, Initial residual = 0.000342589, Final residual = 3.27456e-05, No Iterations 5
smoothSolver:  Solving for Uy, Initial residual = 0.000334138, Final residual = 2.59052e-05, No Iterations 2
GAMG:  Solving for p, Initial residual = 0.000505327, Final residual = 4.45213e-05, No Iterations 10
time step continuity errors : sum local = 1.08555e-05, global = -1.34841e-06, cumulative = 0.000621278
smoothSolver:  Solving for ReThetat, Initial residual = 0.000213669, Final residual = 1.54628e-05, No Iterations 4
smoothSolver:  Solving for gammaInt, Initial residual = 0.000871049, Final residual = 5.92512e-05, No Iterations 1
smoothSolver:  Solving for omega, Initial residual = 4.77321e-07, Final residual = 2.47904e-08, No Iterations 4
smoothSolver:  Solving for k, Initial residual = 0.000483121, Final residual = 3.1329e-05, No Iterations 5
ExecutionTime = 3.58416 s  ClockTime = 4 s

Time = 74s

smoothSolver:  Solving for Ux, Initial residual = 0.000335833, Final residual = 3.2182e-05, No Iterations 5
smoothSolver:  Solving for Uy, Initial residual = 0.000326482, Final residual = 2.49175e-05, No Iterations 2
GAMG:  Solving for p, Initial residual = 0.000492896, Final residual = 4.27669e-05, No Iterations 10
time step continuity errors : sum local = 1.06197e-05, global = -1.32237e-06, cumulative = 0.000619956
smoothSolver:  Solving for ReThetat, Initial residual = 0.000212061, Final residual = 1.51437e-05, No Iterations 4
smoothSolver:  Solving for gammaInt, Initial residual = 0.000870833, Final residual = 6.01085e-05, No Iterations 1
smoothSolver:  Solving for omega, Initial residual = 4.40483e-07, Final residual = 2.30485e-08, No Iterations 4
smoothSolver:  Solving for k, Initial residual = 0.000467313, Final residual = 3.04356e-05, No Iterations 5
ExecutionTime = 3.63224 s  ClockTime = 4 s

Time = 75s

smoothSolver:  Solving for Ux, Initial residual = 0.000329012, Final residual = 3.16107e-05, No Iterations 5
smoothSolver:  Solving for Uy, Initial residual = 0.000318818, Final residual = 2.40758e-05, No Iterations 2
GAMG:  Solving for p, Initial residual = 0.000480668, Final residual = 4.11878e-05, No Iterations 10
time step continuity errors : sum local = 1.04106e-05, global = -1.28864e-06, cumulative = 0.000618667
smoothSolver:  Solving for ReThetat, Initial residual = 0.000209681, Final residual = 1.48367e-05, No Iterations 4
smoothSolver:  Solving for gammaInt, Initial residual = 0.000797359, Final residual = 5.47958e-05, No Iterations 1
smoothSolver:  Solving for omega, Initial residual = 4.16137e-07, Final residual = 2.20707e-08, No Iterations 4
smoothSolver:  Solving for k, Initial residual = 0.000451198, Final residual = 2.94974e-05, No Iterations 5
ExecutionTime = 3.67902 s  ClockTime = 4 s

Time = 76s

smoothSolver:  Solving for Ux, Initial residual = 0.000322205, Final residual = 3.10376e-05, No Iterations 5
smoothSolver:  Solving for Uy, Initial residual = 0.000311379, Final residual = 2.33551e-05, No Iterations 2
GAMG:  Solving for p, Initial residual = 0.000469707, Final residual = 3.92641e-05, No Iterations 10
time step continuity errors : sum local = 1.0097e-05, global = -1.23845e-06, cumulative = 0.000617429
smoothSolver:  Solving for ReThetat, Initial residual = 0.000207049, Final residual = 1.45404e-05, No Iterations 4
smoothSolver:  Solving for gammaInt, Initial residual = 0.000763733, Final residual = 5.46863e-05, No Iterations 1
smoothSolver:  Solving for omega, Initial residual = 3.95897e-07, Final residual = 2.13278e-08, No Iterations 4
smoothSolver:  Solving for k, Initial residual = 0.00043526, Final residual = 2.8551e-05, No Iterations 5
ExecutionTime = 3.72602 s  ClockTime = 4 s

Time = 77s

smoothSolver:  Solving for Ux, Initial residual = 0.000315316, Final residual = 3.04572e-05, No Iterations 5
smoothSolver:  Solving for Uy, Initial residual = 0.0003042, Final residual = 2.27469e-05, No Iterations 2
GAMG:  Solving for p, Initial residual = 0.000458978, Final residual = 3.73645e-05, No Iterations 10
time step continuity errors : sum local = 9.77032e-06, global = -1.17218e-06, cumulative = 0.000616256
smoothSolver:  Solving for ReThetat, Initial residual = 0.00020431, Final residual = 1.42516e-05, No Iterations 4
smoothSolver:  Solving for gammaInt, Initial residual = 0.000742326, Final residual = 5.53325e-05, No Iterations 1
smoothSolver:  Solving for omega, Initial residual = 3.77453e-07, Final residual = 2.06868e-08, No Iterations 4
smoothSolver:  Solving for k, Initial residual = 0.000419619, Final residual = 2.76068e-05, No Iterations 5
ExecutionTime = 3.77474 s  ClockTime = 4 s

Time = 78s

smoothSolver:  Solving for Ux, Initial residual = 0.000308447, Final residual = 2.98765e-05, No Iterations 5
smoothSolver:  Solving for Uy, Initial residual = 0.000297269, Final residual = 2.22331e-05, No Iterations 2
GAMG:  Solving for p, Initial residual = 0.000449293, Final residual = 3.5192e-05, No Iterations 10
time step continuity errors : sum local = 9.35229e-06, global = -1.08411e-06, cumulative = 0.000615172
smoothSolver:  Solving for ReThetat, Initial residual = 0.000201658, Final residual = 1.39699e-05, No Iterations 4
smoothSolver:  Solving for gammaInt, Initial residual = 0.00069898, Final residual = 5.17259e-05, No Iterations 1
smoothSolver:  Solving for omega, Initial residual = 3.60354e-07, Final residual = 2.00879e-08, No Iterations 4
smoothSolver:  Solving for k, Initial residual = 0.000404155, Final residual = 2.66576e-05, No Iterations 5
ExecutionTime = 3.82192 s  ClockTime = 4 s

Time = 79s

smoothSolver:  Solving for Ux, Initial residual = 0.000301504, Final residual = 2.92915e-05, No Iterations 5
smoothSolver:  Solving for Uy, Initial residual = 0.00029058, Final residual = 2.17843e-05, No Iterations 2
GAMG:  Solving for p, Initial residual = 0.000438345, Final residual = 3.30693e-05, No Iterations 10
time step continuity errors : sum local = 8.92626e-06, global = -1.00046e-06, cumulative = 0.000614172
smoothSolver:  Solving for ReThetat, Initial residual = 0.000198944, Final residual = 1.3694e-05, No Iterations 4
smoothSolver:  Solving for gammaInt, Initial residual = 0.000663882, Final residual = 5.05573e-05, No Iterations 1
smoothSolver:  Solving for omega, Initial residual = 3.44078e-07, Final residual = 1.95093e-08, No Iterations 4
smoothSolver:  Solving for k, Initial residual = 0.00038905, Final residual = 2.57196e-05, No Iterations 5
ExecutionTime = 3.86879 s  ClockTime = 4 s

Time = 80s

smoothSolver:  Solving for Ux, Initial residual = 0.000294585, Final residual = 2.87077e-05, No Iterations 5
smoothSolver:  Solving for Uy, Initial residual = 0.00028406, Final residual = 2.13846e-05, No Iterations 2
GAMG:  Solving for p, Initial residual = 0.000428421, Final residual = 3.12387e-05, No Iterations 10
time step continuity errors : sum local = 8.55974e-06, global = -9.29551e-07, cumulative = 0.000613242
smoothSolver:  Solving for ReThetat, Initial residual = 0.000196119, Final residual = 1.3423e-05, No Iterations 4
smoothSolver:  Solving for gammaInt, Initial residual = 0.000621375, Final residual = 4.73305e-05, No Iterations 1
smoothSolver:  Solving for omega, Initial residual = 3.28596e-07, Final residual = 1.89475e-08, No Iterations 4
smoothSolver:  Solving for k, Initial residual = 0.000374245, Final residual = 2.47897e-05, No Iterations 5
ExecutionTime = 3.91743 s  ClockTime = 4 s

Time = 81s

smoothSolver:  Solving for Ux, Initial residual = 0.000287624, Final residual = 2.81216e-05, No Iterations 5
smoothSolver:  Solving for Uy, Initial residual = 0.000277791, Final residual = 2.09936e-05, No Iterations 2
GAMG:  Solving for p, Initial residual = 0.000419376, Final residual = 4.13067e-05, No Iterations 8
time step continuity errors : sum local = 1.14828e-05, global = -1.57575e-06, cumulative = 0.000611666
smoothSolver:  Solving for ReThetat, Initial residual = 0.000193103, Final residual = 1.31565e-05, No Iterations 4
smoothSolver:  Solving for gammaInt, Initial residual = 0.000595225, Final residual = 4.73873e-05, No Iterations 1
smoothSolver:  Solving for omega, Initial residual = 3.13942e-07, Final residual = 1.8394e-08, No Iterations 4
smoothSolver:  Solving for k, Initial residual = 0.000359975, Final residual = 2.3882e-05, No Iterations 5
ExecutionTime = 3.96363 s  ClockTime = 4 s

Time = 82s

smoothSolver:  Solving for Ux, Initial residual = 0.00028054, Final residual = 2.75406e-05, No Iterations 5
smoothSolver:  Solving for Uy, Initial residual = 0.000269757, Final residual = 2.05627e-05, No Iterations 2
GAMG:  Solving for p, Initial residual = 0.000415299, Final residual = 3.22471e-05, No Iterations 10
time step continuity errors : sum local = 9.08227e-06, global = -9.54051e-07, cumulative = 0.000610712
smoothSolver:  Solving for ReThetat, Initial residual = 0.00019018, Final residual = 1.28943e-05, No Iterations 4
smoothSolver:  Solving for gammaInt, Initial residual = 0.000560639, Final residual = 4.55664e-05, No Iterations 1
smoothSolver:  Solving for omega, Initial residual = 3.01302e-07, Final residual = 1.78443e-08, No Iterations 4
smoothSolver:  Solving for k, Initial residual = 0.000346149, Final residual = 2.29944e-05, No Iterations 5
ExecutionTime = 4.01079 s  ClockTime = 4 s

Time = 83s

smoothSolver:  Solving for Ux, Initial residual = 0.00027406, Final residual = 2.6962e-05, No Iterations 5
smoothSolver:  Solving for Uy, Initial residual = 0.000266765, Final residual = 2.02138e-05, No Iterations 2
GAMG:  Solving for p, Initial residual = 0.000408704, Final residual = 3.87827e-05, No Iterations 8
time step continuity errors : sum local = 1.10825e-05, global = -1.51403e-06, cumulative = 0.000609198
smoothSolver:  Solving for ReThetat, Initial residual = 0.000186666, Final residual = 1.26348e-05, No Iterations 4
smoothSolver:  Solving for gammaInt, Initial residual = 0.000512067, Final residual = 4.13561e-05, No Iterations 1
smoothSolver:  Solving for omega, Initial residual = 2.87989e-07, Final residual = 1.73047e-08, No Iterations 4
smoothSolver:  Solving for k, Initial residual = 0.000332505, Final residual = 2.21109e-05, No Iterations 5
ExecutionTime = 4.05653 s  ClockTime = 4 s

Time = 84s

smoothSolver:  Solving for Ux, Initial residual = 0.000266915, Final residual = 2.63865e-05, No Iterations 5
smoothSolver:  Solving for Uy, Initial residual = 0.000259172, Final residual = 1.97415e-05, No Iterations 2
GAMG:  Solving for p, Initial residual = 0.000404342, Final residual = 2.99303e-05, No Iterations 10
time step continuity errors : sum local = 8.65452e-06, global = -9.13293e-07, cumulative = 0.000608285
smoothSolver:  Solving for ReThetat, Initial residual = 0.000183382, Final residual = 1.2378e-05, No Iterations 4
smoothSolver:  Solving for gammaInt, Initial residual = 0.000479592, Final residual = 3.9688e-05, No Iterations 1
smoothSolver:  Solving for omega, Initial residual = 2.77225e-07, Final residual = 1.67717e-08, No Iterations 4
smoothSolver:  Solving for k, Initial residual = 0.000319231, Final residual = 2.12456e-05, No Iterations 5
ExecutionTime = 4.10444 s  ClockTime = 5 s

Time = 85s

smoothSolver:  Solving for Ux, Initial residual = 0.000260406, Final residual = 2.58142e-05, No Iterations 5
smoothSolver:  Solving for Uy, Initial residual = 0.000256019, Final residual = 1.93314e-05, No Iterations 2
GAMG:  Solving for p, Initial residual = 0.000397447, Final residual = 3.66293e-05, No Iterations 8
time step continuity errors : sum local = 1.07318e-05, global = -1.45956e-06, cumulative = 0.000606826
smoothSolver:  Solving for ReThetat, Initial residual = 0.000179371, Final residual = 1.21243e-05, No Iterations 4
smoothSolver:  Solving for gammaInt, Initial residual = 0.00043183, Final residual = 3.49916e-05, No Iterations 1
smoothSolver:  Solving for omega, Initial residual = 2.64944e-07, Final residual = 1.62448e-08, No Iterations 4
smoothSolver:  Solving for k, Initial residual = 0.000306205, Final residual = 2.03879e-05, No Iterations 5
ExecutionTime = 4.15076 s  ClockTime = 5 s

Time = 86s

smoothSolver:  Solving for Ux, Initial residual = 0.000253528, Final residual = 2.52458e-05, No Iterations 5
[...]
smoothSolver:  Solving for gammaInt, Initial residual = 1.07247e-05, Final residual = 6.07909e-07, No Iterations 1
smoothSolver:  Solving for omega, Initial residual = 7.56545e-09, Final residual = 7.56545e-09, No Iterations 0
smoothSolver:  Solving for k, Initial residual = 2.24863e-06, Final residual = 1.70838e-07, No Iterations 5
ExecutionTime = 12.428 s  ClockTime = 13 s

Time = 266s

smoothSolver:  Solving for Ux, Initial residual = 1.82304e-06, Final residual = 1.3864e-07, No Iterations 6
smoothSolver:  Solving for Uy, Initial residual = 1.57047e-06, Final residual = 1.45879e-07, No Iterations 2
GAMG:  Solving for p, Initial residual = 5.47762e-06, Final residual = 7.62034e-07, No Iterations 6
time step continuity errors : sum local = 3.44819e-07, global = -6.24324e-08, cumulative = 0.000537426
smoothSolver:  Solving for ReThetat, Initial residual = 1.71526e-05, Final residual = 1.4463e-06, No Iterations 6
smoothSolver:  Solving for gammaInt, Initial residual = 1.11166e-05, Final residual = 6.69731e-07, No Iterations 1
smoothSolver:  Solving for omega, Initial residual = 9.28575e-09, Final residual = 9.28575e-09, No Iterations 0
smoothSolver:  Solving for k, Initial residual = 2.30981e-06, Final residual = 1.7277e-07, No Iterations 5
ExecutionTime = 12.4709 s  ClockTime = 13 s

Time = 267s

smoothSolver:  Solving for Ux, Initial residual = 1.76911e-06, Final residual = 1.34376e-07, No Iterations 6
smoothSolver:  Solving for Uy, Initial residual = 1.53337e-06, Final residual = 1.4235e-07, No Iterations 2
GAMG:  Solving for p, Initial residual = 5.43443e-06, Final residual = 7.48134e-07, No Iterations 6
time step continuity errors : sum local = 3.38571e-07, global = -6.14217e-08, cumulative = 0.000537365
smoothSolver:  Solving for ReThetat, Initial residual = 1.70641e-05, Final residual = 1.43692e-06, No Iterations 6
smoothSolver:  Solving for gammaInt, Initial residual = 1.15726e-05, Final residual = 7.54008e-07, No Iterations 1
smoothSolver:  Solving for omega, Initial residual = 1.09864e-08, Final residual = 4.42075e-09, No Iterations 1
smoothSolver:  Solving for k, Initial residual = 2.00584e-06, Final residual = 1.54242e-07, No Iterations 5
ExecutionTime = 12.5154 s  ClockTime = 13 s

Time = 268s

smoothSolver:  Solving for Ux, Initial residual = 1.71777e-06, Final residual = 1.30741e-07, No Iterations 6
smoothSolver:  Solving for Uy, Initial residual = 1.49454e-06, Final residual = 1.37096e-07, No Iterations 2
GAMG:  Solving for p, Initial residual = 5.09154e-06, Final residual = 7.1573e-07, No Iterations 6
time step continuity errors : sum local = 3.23947e-07, global = -5.86986e-08, cumulative = 0.000537306
smoothSolver:  Solving for ReThetat, Initial residual = 1.68983e-05, Final residual = 1.42749e-06, No Iterations 6
smoothSolver:  Solving for gammaInt, Initial residual = 1.1298e-05, Final residual = 8.44491e-07, No Iterations 1
smoothSolver:  Solving for omega, Initial residual = 6.2974e-09, Final residual = 6.2974e-09, No Iterations 0
smoothSolver:  Solving for k, Initial residual = 1.95948e-06, Final residual = 1.50903e-07, No Iterations 5
ExecutionTime = 12.5587 s  ClockTime = 13 s

Time = 269s

smoothSolver:  Solving for Ux, Initial residual = 1.66649e-06, Final residual = 1.2683e-07, No Iterations 6
smoothSolver:  Solving for Uy, Initial residual = 1.44564e-06, Final residual = 1.34402e-07, No Iterations 2
GAMG:  Solving for p, Initial residual = 5.04027e-06, Final residual = 7.04231e-07, No Iterations 6
time step continuity errors : sum local = 3.1878e-07, global = -5.80327e-08, cumulative = 0.000537248
smoothSolver:  Solving for ReThetat, Initial residual = 1.67276e-05, Final residual = 1.41824e-06, No Iterations 6
smoothSolver:  Solving for gammaInt, Initial residual = 1.32221e-05, Final residual = 1.16973e-06, No Iterations 1
smoothSolver:  Solving for omega, Initial residual = 7.25956e-09, Final residual = 7.25956e-09, No Iterations 0
smoothSolver:  Solving for k, Initial residual = 2.00863e-06, Final residual = 1.51915e-07, No Iterations 5
ExecutionTime = 12.6013 s  ClockTime = 13 s

Time = 270s

smoothSolver:  Solving for Ux, Initial residual = 1.6171e-06, Final residual = 1.22975e-07, No Iterations 6
smoothSolver:  Solving for Uy, Initial residual = 1.40768e-06, Final residual = 1.31208e-07, No Iterations 2
GAMG:  Solving for p, Initial residual = 5.01319e-06, Final residual = 6.92605e-07, No Iterations 6
time step continuity errors : sum local = 3.13553e-07, global = -5.72047e-08, cumulative = 0.000537191
smoothSolver:  Solving for ReThetat, Initial residual = 1.66321e-05, Final residual = 1.40901e-06, No Iterations 6
smoothSolver:  Solving for gammaInt, Initial residual = 1.98143e-05, Final residual = 7.15741e-07, No Iterations 2
smoothSolver:  Solving for omega, Initial residual = 8.71486e-09, Final residual = 8.71486e-09, No Iterations 0
smoothSolver:  Solving for k, Initial residual = 2.10365e-06, Final residual = 1.5504e-07, No Iterations 5
ExecutionTime = 12.6438 s  ClockTime = 13 s

Time = 271s

smoothSolver:  Solving for Ux, Initial residual = 1.57074e-06, Final residual = 1.1915e-07, No Iterations 6
smoothSolver:  Solving for Uy, Initial residual = 1.37491e-06, Final residual = 1.2795e-07, No Iterations 2
GAMG:  Solving for p, Initial residual = 5.00275e-06, Final residual = 6.81589e-07, No Iterations 6
time step continuity errors : sum local = 3.08601e-07, global = -5.63436e-08, cumulative = 0.000537135
smoothSolver:  Solving for ReThetat, Initial residual = 1.65462e-05, Final residual = 1.3998e-06, No Iterations 6
smoothSolver:  Solving for gammaInt, Initial residual = 1.03648e-05, Final residual = 5.34723e-07, No Iterations 1
smoothSolver:  Solving for omega, Initial residual = 1.02668e-08, Final residual = 4.27736e-09, No Iterations 1
smoothSolver:  Solving for k, Initial residual = 1.78117e-06, Final residual = 1.36913e-07, No Iterations 5
ExecutionTime = 12.6867 s  ClockTime = 13 s

Time = 272s

smoothSolver:  Solving for Ux, Initial residual = 1.52449e-06, Final residual = 1.15929e-07, No Iterations 6
smoothSolver:  Solving for Uy, Initial residual = 1.3406e-06, Final residual = 1.22984e-07, No Iterations 2
GAMG:  Solving for p, Initial residual = 4.68151e-06, Final residual = 9.79138e-07, No Iterations 4
time step continuity errors : sum local = 4.43371e-07, global = -1.21177e-07, cumulative = 0.000537014
smoothSolver:  Solving for ReThetat, Initial residual = 1.63708e-05, Final residual = 1.39054e-06, No Iterations 6
smoothSolver:  Solving for gammaInt, Initial residual = 8.37955e-06, Final residual = 3.75287e-07, No Iterations 1
smoothSolver:  Solving for omega, Initial residual = 5.92211e-09, Final residual = 5.92211e-09, No Iterations 0
smoothSolver:  Solving for k, Initial residual = 1.73818e-06, Final residual = 1.3389e-07, No Iterations 5
ExecutionTime = 12.7273 s  ClockTime = 13 s

Time = 273s

smoothSolver:  Solving for Ux, Initial residual = 1.47091e-06, Final residual = 1.12435e-07, No Iterations 6
smoothSolver:  Solving for Uy, Initial residual = 1.24424e-06, Final residual = 1.17516e-07, No Iterations 2
GAMG:  Solving for p, Initial residual = 4.84893e-06, Final residual = 7.54381e-07, No Iterations 6
time step continuity errors : sum local = 3.41625e-07, global = -6.05619e-08, cumulative = 0.000536953
smoothSolver:  Solving for ReThetat, Initial residual = 1.62413e-05, Final residual = 1.38146e-06, No Iterations 6
smoothSolver:  Solving for gammaInt, Initial residual = 8.81476e-06, Final residual = 3.85501e-07, No Iterations 1
smoothSolver:  Solving for omega, Initial residual = 6.97939e-09, Final residual = 6.97939e-09, No Iterations 0
smoothSolver:  Solving for k, Initial residual = 1.76887e-06, Final residual = 1.3416e-07, No Iterations 5
ExecutionTime = 12.7695 s  ClockTime = 13 s

Time = 274s

smoothSolver:  Solving for Ux, Initial residual = 1.43819e-06, Final residual = 1.08978e-07, No Iterations 6
smoothSolver:  Solving for Uy, Initial residual = 1.29814e-06, Final residual = 1.19568e-07, No Iterations 2
GAMG:  Solving for p, Initial residual = 4.60009e-06, Final residual = 9.47228e-07, No Iterations 4
time step continuity errors : sum local = 4.29014e-07, global = -1.14611e-07, cumulative = 0.000536838
smoothSolver:  Solving for ReThetat, Initial residual = 1.61212e-05, Final residual = 1.37239e-06, No Iterations 6
smoothSolver:  Solving for gammaInt, Initial residual = 8.89913e-06, Final residual = 3.84691e-07, No Iterations 1
smoothSolver:  Solving for omega, Initial residual = 8.37254e-09, Final residual = 8.37254e-09, No Iterations 0
smoothSolver:  Solving for k, Initial residual = 1.8151e-06, Final residual = 1.35467e-07, No Iterations 5
ExecutionTime = 12.81 s  ClockTime = 13 s

Time = 275s

smoothSolver:  Solving for Ux, Initial residual = 1.38612e-06, Final residual = 1.05584e-07, No Iterations 6
smoothSolver:  Solving for Uy, Initial residual = 1.20375e-06, Final residual = 1.13231e-07, No Iterations 2
GAMG:  Solving for p, Initial residual = 4.76589e-06, Final residual = 7.33933e-07, No Iterations 6
time step continuity errors : sum local = 3.32435e-07, global = -5.83395e-08, cumulative = 0.00053678
smoothSolver:  Solving for ReThetat, Initial residual = 1.60596e-05, Final residual = 1.36335e-06, No Iterations 6
smoothSolver:  Solving for gammaInt, Initial residual = 8.92903e-06, Final residual = 3.83824e-07, No Iterations 1
smoothSolver:  Solving for omega, Initial residual = 9.7352e-09, Final residual = 9.7352e-09, No Iterations 0
smoothSolver:  Solving for k, Initial residual = 1.85838e-06, Final residual = 1.37064e-07, No Iterations 5
ExecutionTime = 12.8531 s  ClockTime = 13 s

Time = 276s

smoothSolver:  Solving for Ux, Initial residual = 1.35326e-06, Final residual = 1.02203e-07, No Iterations 6
smoothSolver:  Solving for Uy, Initial residual = 1.25041e-06, Final residual = 1.1399e-07, No Iterations 2
GAMG:  Solving for p, Initial residual = 4.54863e-06, Final residual = 9.24537e-07, No Iterations 4
time step continuity errors : sum local = 4.18821e-07, global = -1.11847e-07, cumulative = 0.000536668
smoothSolver:  Solving for ReThetat, Initial residual = 1.59398e-05, Final residual = 1.35435e-06, No Iterations 6
smoothSolver:  Solving for gammaInt, Initial residual = 8.93355e-06, Final residual = 3.83714e-07, No Iterations 1
smoothSolver:  Solving for omega, Initial residual = 1.11018e-08, Final residual = 4.40694e-09, No Iterations 1
smoothSolver:  Solving for k, Initial residual = 1.52415e-06, Final residual = 1.16803e-07, No Iterations 5
ExecutionTime = 12.8947 s  ClockTime = 13 s

Time = 277s

smoothSolver:  Solving for Ux, Initial residual = 1.30523e-06, Final residual = 9.94657e-08, No Iterations 6
smoothSolver:  Solving for Uy, Initial residual = 1.15627e-06, Final residual = 1.06019e-07, No Iterations 2
GAMG:  Solving for p, Initial residual = 4.4311e-06, Final residual = 7.03852e-07, No Iterations 6
time step continuity errors : sum local = 3.18873e-07, global = -5.5672e-08, cumulative = 0.000536613
smoothSolver:  Solving for ReThetat, Initial residual = 1.57974e-05, Final residual = 1.3453e-06, No Iterations 6
smoothSolver:  Solving for gammaInt, Initial residual = 7.94717e-06, Final residual = 3.27079e-07, No Iterations 1
smoothSolver:  Solving for omega, Initial residual = 6.14017e-09, Final residual = 6.14017e-09, No Iterations 0
smoothSolver:  Solving for k, Initial residual = 1.47856e-06, Final residual = 1.13474e-07, No Iterations 5
ExecutionTime = 12.9373 s  ClockTime = 13 s

Time = 278s

smoothSolver:  Solving for Ux, Initial residual = 1.27364e-06, Final residual = 9.64321e-08, No Iterations 6
smoothSolver:  Solving for Uy, Initial residual = 1.18712e-06, Final residual = 1.07839e-07, No Iterations 2
GAMG:  Solving for p, Initial residual = 4.20671e-06, Final residual = 8.77464e-07, No Iterations 4
time step continuity errors : sum local = 3.97572e-07, global = -1.06045e-07, cumulative = 0.000536506
smoothSolver:  Solving for ReThetat, Initial residual = 1.56157e-05, Final residual = 1.33643e-06, No Iterations 6
smoothSolver:  Solving for gammaInt, Initial residual = 8.45942e-06, Final residual = 3.5304e-07, No Iterations 1
smoothSolver:  Solving for omega, Initial residual = 6.75396e-09, Final residual = 6.75396e-09, No Iterations 0
smoothSolver:  Solving for k, Initial residual = 1.49466e-06, Final residual = 1.13396e-07, No Iterations 5
ExecutionTime = 12.9779 s  ClockTime = 13 s

Time = 279s

smoothSolver:  Solving for Ux, Initial residual = 1.22668e-06, Final residual = 9.34722e-08, No Iterations 6
smoothSolver:  Solving for Uy, Initial residual = 1.09612e-06, Final residual = 1.02201e-07, No Iterations 2
GAMG:  Solving for p, Initial residual = 4.35812e-06, Final residual = 6.88695e-07, No Iterations 6
time step continuity errors : sum local = 3.12063e-07, global = -5.49791e-08, cumulative = 0.000536451
smoothSolver:  Solving for ReThetat, Initial residual = 1.55426e-05, Final residual = 1.32758e-06, No Iterations 6
smoothSolver:  Solving for gammaInt, Initial residual = 8.55898e-06, Final residual = 3.60906e-07, No Iterations 1
smoothSolver:  Solving for omega, Initial residual = 7.6976e-09, Final residual = 7.6976e-09, No Iterations 0
smoothSolver:  Solving for k, Initial residual = 1.53147e-06, Final residual = 1.14335e-07, No Iterations 5
ExecutionTime = 13.0212 s  ClockTime = 13 s

Time = 280s

smoothSolver:  Solving for Ux, Initial residual = 1.19747e-06, Final residual = 9.05339e-08, No Iterations 6
smoothSolver:  Solving for Uy, Initial residual = 1.134e-06, Final residual = 1.03222e-07, No Iterations 2
GAMG:  Solving for p, Initial residual = 4.16723e-06, Final residual = 8.65604e-07, No Iterations 4
time step continuity errors : sum local = 3.92267e-07, global = -1.04278e-07, cumulative = 0.000536347
smoothSolver:  Solving for ReThetat, Initial residual = 1.54366e-05, Final residual = 1.31876e-06, No Iterations 6
smoothSolver:  Solving for gammaInt, Initial residual = 8.59742e-06, Final residual = 3.6547e-07, No Iterations 1
smoothSolver:  Solving for omega, Initial residual = 8.79725e-09, Final residual = 8.79725e-09, No Iterations 0
smoothSolver:  Solving for k, Initial residual = 1.56704e-06, Final residual = 1.15606e-07, No Iterations 5
ExecutionTime = 13.0616 s  ClockTime = 14 s

Time = 281s

smoothSolver:  Solving for Ux, Initial residual = 1.15339e-06, Final residual = 8.76421e-08, No Iterations 6
smoothSolver:  Solving for Uy, Initial residual = 1.05054e-06, Final residual = 9.7527e-08, No Iterations 2
GAMG:  Solving for p, Initial residual = 4.29522e-06, Final residual = 6.72826e-07, No Iterations 6
time step continuity errors : sum local = 3.04925e-07, global = -5.38549e-08, cumulative = 0.000536293
smoothSolver:  Solving for ReThetat, Initial residual = 1.53661e-05, Final residual = 1.30997e-06, No Iterations 6
smoothSolver:  Solving for gammaInt, Initial residual = 8.60913e-06, Final residual = 3.68949e-07, No Iterations 1
smoothSolver:  Solving for omega, Initial residual = 9.94783e-09, Final residual = 9.94783e-09, No Iterations 0
smoothSolver:  Solving for k, Initial residual = 1.59481e-06, Final residual = 1.16611e-07, No Iterations 5
ExecutionTime = 13.1038 s  ClockTime = 14 s

Time = 282s

smoothSolver:  Solving for Ux, Initial residual = 1.1254e-06, Final residual = 8.4768e-08, No Iterations 6
smoothSolver:  Solving for Uy, Initial residual = 1.08739e-06, Final residual = 9.81971e-08, No Iterations 2
GAMG:  Solving for p, Initial residual = 4.09174e-06, Final residual = 8.39266e-07, No Iterations 4
time step continuity errors : sum local = 3.80396e-07, global = -1.01107e-07, cumulative = 0.000536192
smoothSolver:  Solving for ReThetat, Initial residual = 1.52435e-05, Final residual = 1.30122e-06, No Iterations 6
smoothSolver:  Solving for gammaInt, Initial residual = 8.6037e-06, Final residual = 3.71692e-07, No Iterations 1
smoothSolver:  Solving for omega, Initial residual = 1.10983e-08, Final residual = 4.46558e-09, No Iterations 1
smoothSolver:  Solving for k, Initial residual = 1.24657e-06, Final residual = 9.55416e-08, No Iterations 5
ExecutionTime = 13.1451 s  ClockTime = 14 s

Time = 283s

smoothSolver:  Solving for Ux, Initial residual = 1.08523e-06, Final residual = 8.25335e-08, No Iterations 6
smoothSolver:  Solving for Uy, Initial residual = 1.00094e-06, Final residual = 9.08542e-08, No Iterations 2
GAMG:  Solving for p, Initial residual = 3.93051e-06, Final residual = 9.5413e-07, No Iterations 4
time step continuity errors : sum local = 4.32486e-07, global = -1.07665e-07, cumulative = 0.000536085
smoothSolver:  Solving for ReThetat, Initial residual = 1.50856e-05, Final residual = 1.29244e-06, No Iterations 6
smoothSolver:  Solving for gammaInt, Initial residual = 7.6435e-06, Final residual = 3.19082e-07, No Iterations 1
smoothSolver:  Solving for omega, Initial residual = 6.01209e-09, Final residual = 6.01209e-09, No Iterations 0
smoothSolver:  Solving for k, Initial residual = 1.21236e-06, Final residual = 9.28038e-08, No Iterations 5
ExecutionTime = 13.1855 s  ClockTime = 14 s

Time = 284s

smoothSolver:  Solving for Ux, Initial residual = 1.05173e-06, Final residual = 7.99999e-08, No Iterations 6
smoothSolver:  Solving for Uy, Initial residual = 9.71709e-07, Final residual = 8.92612e-08, No Iterations 2
GAMG:  Solving for p, Initial residual = 3.87826e-06, Final residual = 9.67129e-07, No Iterations 4
time step continuity errors : sum local = 4.38412e-07, global = -1.05869e-07, cumulative = 0.000535979
smoothSolver:  Solving for ReThetat, Initial residual = 1.49439e-05, Final residual = 1.28383e-06, No Iterations 6
smoothSolver:  Solving for gammaInt, Initial residual = 8.13243e-06, Final residual = 3.45161e-07, No Iterations 1
smoothSolver:  Solving for omega, Initial residual = 6.47599e-09, Final residual = 6.47599e-09, No Iterations 0
smoothSolver:  Solving for k, Initial residual = 1.21171e-06, Final residual = 9.23893e-08, No Iterations 5
ExecutionTime = 13.2258 s  ClockTime = 14 s

Time = 285s

smoothSolver:  Solving for Ux, Initial residual = 1.02096e-06, Final residual = 7.75253e-08, No Iterations 6
smoothSolver:  Solving for Uy, Initial residual = 9.54211e-07, Final residual = 8.80644e-08, No Iterations 2
GAMG:  Solving for p, Initial residual = 3.82207e-06, Final residual = 9.3887e-07, No Iterations 4
time step continuity errors : sum local = 4.25636e-07, global = -1.01747e-07, cumulative = 0.000535877
smoothSolver:  Solving for ReThetat, Initial residual = 1.48422e-05, Final residual = 1.27524e-06, No Iterations 6
smoothSolver:  Solving for gammaInt, Initial residual = 8.22581e-06, Final residual = 3.53688e-07, No Iterations 1
smoothSolver:  Solving for omega, Initial residual = 7.17954e-09, Final residual = 7.17954e-09, No Iterations 0
smoothSolver:  Solving for k, Initial residual = 1.2333e-06, Final residual = 9.25845e-08, No Iterations 5
ExecutionTime = 13.268 s  ClockTime = 14 s

Time = 286s

smoothSolver:  Solving for Ux, Initial residual = 9.90273e-07, Final residual = 7.50916e-08, No Iterations 6
smoothSolver:  Solving for Uy, Initial residual = 9.31695e-07, Final residual = 8.62033e-08, No Iterations 2
GAMG:  Solving for p, Initial residual = 3.76458e-06, Final residual = 9.06356e-07, No Iterations 4
time step continuity errors : sum local = 4.10927e-07, global = -9.86156e-08, cumulative = 0.000535778
smoothSolver:  Solving for ReThetat, Initial residual = 1.47587e-05, Final residual = 1.26668e-06, No Iterations 6
smoothSolver:  Solving for gammaInt, Initial residual = 8.26201e-06, Final residual = 3.58931e-07, No Iterations 1
smoothSolver:  Solving for omega, Initial residual = 8.09876e-09, Final residual = 8.09876e-09, No Iterations 0
smoothSolver:  Solving for k, Initial residual = 1.26137e-06, Final residual = 9.3509e-08, No Iterations 5
ExecutionTime = 13.3098 s  ClockTime = 14 s


SIMPLE solution converged in 286 iterations

End

