/*---------------------------------------------------------------------------*\
  =========                 |
  \\      /  F ield         | OpenFOAM: The Open Source CFD Toolbox
   \\    /   O peration     | Website:  https://openfoam.org
    \\  /    A nd           | Version:  13
     \\/     M anipulation  |
\*---------------------------------------------------------------------------*/
Build  : 13-441953dfbb42
Exec   : foamRun
Date   : May 17 2026
Time   : 12:48:20
Host   : "B3D-adscfd01"
PID    : 3382455
I/O    : uncollated
Case   : /home/ads-user/openfoam/openfoam-T3A-transition/studies/Tu3
nProcs : 1
sigFpe : Enabling floating point exception trapping (FOAM_SIGFPE).
fileModificationChecking : Monitoring run-time modified files using timeStampMaster (fileModificationSkew 10)
allowSystemOperations : Allowing user-supplied system call operations

// * * * * * * * * * * * * * * * * * * * * * * * * * * * * * * * * * * * * * //
Create time

Create mesh for time = 0

Selecting solver incompressibleFluid
Selecting viscosity model constant
Selecting turbulence model type RAS
    Selecting RAS turbulence model kOmegaSSTLM
No MRF models present

Selecting patchDistMethod meshWave

SIMPLE: Convergence criteria found
        p: tolerance 1e-05
        U: tolerance 1e-06
        "(k|omega|gammaInt|ReThetat)": tolerance 0.0001


SIMPLE: Operating solver in steady-state mode with 1 outer corrector
SIMPLE: Operating solver in SIMPLE mode



Starting time loop

wallShearStress wallShearStress:
    processing all wall patches

Reading set description:
    line

Reading set description:
    line

Time = 1s

smoothSolver:  Solving for Ux, Initial residual = 1, Final residual = 0.0711022, No Iterations 5
smoothSolver:  Solving for Uy, Initial residual = 1, Final residual = 0.0935764, No Iterations 3
GAMG:  Solving for p, Initial residual = 1, Final residual = 0.0774031, No Iterations 28
time step continuity errors : sum local = 0.000108488, global = -3.55057e-06, cumulative = -3.55057e-06
smoothSolver:  Solving for ReThetat, Initial residual = 1, Final residual = 0.0329124, No Iterations 1
smoothSolver:  Solving for gammaInt, Initial residual = 1, Final residual = 1.09416, No Iterations 10
smoothSolver:  Solving for omega, Initial residual = 0.0509303, Final residual = 0.00475361, No Iterations 3
smoothSolver:  Solving for k, Initial residual = 1, Final residual = 0.0593225, No Iterations 1
ExecutionTime = 0.298527 s  ClockTime = 1 s

Time = 2s

smoothSolver:  Solving for Ux, Initial residual = 0.187858, Final residual = 0.0137594, No Iterations 2
smoothSolver:  Solving for Uy, Initial residual = 0.0375858, Final residual = 0.00361388, No Iterations 2
GAMG:  Solving for p, Initial residual = 0.00281445, Final residual = 0.000252514, No Iterations 16
time step continuity errors : sum local = 0.00159821, global = 0.000224838, cumulative = 0.000221288
smoothSolver:  Solving for ReThetat, Initial residual = 0.554869, Final residual = 0.0162821, No Iterations 1
smoothSolver:  Solving for gammaInt, Initial residual = 1, Final residual = 0.0179854, No Iterations 1
smoothSolver:  Solving for omega, Initial residual = 0.137173, Final residual = 0.000452932, No Iterations 1
smoothSolver:  Solving for k, Initial residual = 0.30986, Final residual = 0.02799, No Iterations 1
ExecutionTime = 0.345641 s  ClockTime = 1 s

Time = 3s

smoothSolver:  Solving for Ux, Initial residual = 0.0324635, Final residual = 0.00308123, No Iterations 3
smoothSolver:  Solving for Uy, Initial residual = 0.0175222, Final residual = 0.00174153, No Iterations 2
GAMG:  Solving for p, Initial residual = 0.00732846, Final residual = 0.000712538, No Iterations 12
time step continuity errors : sum local = 0.00123621, global = 0.000281061, cumulative = 0.000502349
smoothSolver:  Solving for ReThetat, Initial residual = 0.596274, Final residual = 0.0126455, No Iterations 1
smoothSolver:  Solving for gammaInt, Initial residual = 0.0372621, Final residual = 0.00314312, No Iterations 2
smoothSolver:  Solving for omega, Initial residual = 0.00779473, Final residual = 9.75713e-05, No Iterations 1
smoothSolver:  Solving for k, Initial residual = 0.166937, Final residual = 0.006851, No Iterations 2
ExecutionTime = 0.391837 s  ClockTime = 1 s

Time = 4s

smoothSolver:  Solving for Ux, Initial residual = 0.0139261, Final residual = 0.00118848, No Iterations 4
smoothSolver:  Solving for Uy, Initial residual = 0.0118995, Final residual = 0.000739576, No Iterations 3
GAMG:  Solving for p, Initial residual = 0.0107647, Final residual = 0.00102137, No Iterations 10
time step continuity errors : sum local = 0.000676413, global = 0.000127701, cumulative = 0.00063005
smoothSolver:  Solving for ReThetat, Initial residual = 0.332479, Final residual = 0.00712516, No Iterations 1
smoothSolver:  Solving for gammaInt, Initial residual = 0.0118494, Final residual = 0.000936908, No Iterations 3
smoothSolver:  Solving for omega, Initial residual = 0.0078604, Final residual = 6.4803e-05, No Iterations 1
smoothSolver:  Solving for k, Initial residual = 0.0996355, Final residual = 0.00528946, No Iterations 2
ExecutionTime = 0.436409 s  ClockTime = 1 s

Time = 5s

smoothSolver:  Solving for Ux, Initial residual = 0.00871919, Final residual = 0.00054753, No Iterations 5
smoothSolver:  Solving for Uy, Initial residual = 0.0086375, Final residual = 0.000651301, No Iterations 3
GAMG:  Solving for p, Initial residual = 0.0167679, Final residual = 0.000916027, No Iterations 8
time step continuity errors : sum local = 0.000330316, global = 5.73664e-05, cumulative = 0.000687417
smoothSolver:  Solving for ReThetat, Initial residual = 0.21259, Final residual = 0.00481425, No Iterations 1
smoothSolver:  Solving for gammaInt, Initial residual = 0.0055206, Final residual = 0.000371862, No Iterations 3
smoothSolver:  Solving for omega, Initial residual = 0.00313185, Final residual = 6.06609e-05, No Iterations 1
smoothSolver:  Solving for k, Initial residual = 0.0691884, Final residual = 0.00451739, No Iterations 2
ExecutionTime = 0.47866 s  ClockTime = 1 s

Time = 6s

smoothSolver:  Solving for Ux, Initial residual = 0.00660116, Final residual = 0.000426924, No Iterations 5
smoothSolver:  Solving for Uy, Initial residual = 0.00692865, Final residual = 0.000608933, No Iterations 3
GAMG:  Solving for p, Initial residual = 0.0174052, Final residual = 0.001405, No Iterations 7
time step continuity errors : sum local = 0.000467314, global = -0.000118231, cumulative = 0.000569186
smoothSolver:  Solving for ReThetat, Initial residual = 0.149628, Final residual = 0.00357888, No Iterations 1
smoothSolver:  Solving for gammaInt, Initial residual = 0.00567592, Final residual = 0.000268808, No Iterations 3
smoothSolver:  Solving for omega, Initial residual = 0.00230213, Final residual = 4.06168e-05, No Iterations 1
smoothSolver:  Solving for k, Initial residual = 0.0505283, Final residual = 0.00394265, No Iterations 2
ExecutionTime = 0.522358 s  ClockTime = 1 s

Time = 7s

smoothSolver:  Solving for Ux, Initial residual = 0.00492654, Final residual = 0.000350904, No Iterations 5
smoothSolver:  Solving for Uy, Initial residual = 0.00561008, Final residual = 0.0003182, No Iterations 4
GAMG:  Solving for p, Initial residual = 0.0141312, Final residual = 0.000816098, No Iterations 8
time step continuity errors : sum local = 0.000262898, global = 4.23213e-05, cumulative = 0.000611507
smoothSolver:  Solving for ReThetat, Initial residual = 0.112698, Final residual = 0.0028217, No Iterations 1
smoothSolver:  Solving for gammaInt, Initial residual = 0.00410021, Final residual = 0.000308905, No Iterations 2
smoothSolver:  Solving for omega, Initial residual = 0.00114599, Final residual = 2.46607e-05, No Iterations 1
smoothSolver:  Solving for k, Initial residual = 0.0390682, Final residual = 0.00353438, No Iterations 2
ExecutionTime = 0.56492 s  ClockTime = 1 s

Time = 8s

smoothSolver:  Solving for Ux, Initial residual = 0.00411405, Final residual = 0.000294896, No Iterations 5
smoothSolver:  Solving for Uy, Initial residual = 0.00475892, Final residual = 0.000282518, No Iterations 4
GAMG:  Solving for p, Initial residual = 0.0128709, Final residual = 0.00104217, No Iterations 7
time step continuity errors : sum local = 0.000334561, global = -2.98697e-05, cumulative = 0.000581638
smoothSolver:  Solving for ReThetat, Initial residual = 0.0930257, Final residual = 0.00232786, No Iterations 1
smoothSolver:  Solving for gammaInt, Initial residual = 0.00362845, Final residual = 0.00022545, No Iterations 2
smoothSolver:  Solving for omega, Initial residual = 0.000747497, Final residual = 1.96533e-05, No Iterations 1
smoothSolver:  Solving for k, Initial residual = 0.0310655, Final residual = 0.0018687, No Iterations 3
ExecutionTime = 0.605708 s  ClockTime = 1 s

Time = 9s

smoothSolver:  Solving for Ux, Initial residual = 0.00349656, Final residual = 0.000254862, No Iterations 5
smoothSolver:  Solving for Uy, Initial residual = 0.00412679, Final residual = 0.000246226, No Iterations 4
GAMG:  Solving for p, Initial residual = 0.0126308, Final residual = 0.000861471, No Iterations 6
time step continuity errors : sum local = 0.000245539, global = 5.52655e-06, cumulative = 0.000587164
smoothSolver:  Solving for ReThetat, Initial residual = 0.0782994, Final residual = 0.00203268, No Iterations 1
smoothSolver:  Solving for gammaInt, Initial residual = 0.00679174, Final residual = 0.000406722, No Iterations 2
smoothSolver:  Solving for omega, Initial residual = 0.000399648, Final residual = 1.01262e-05, No Iterations 1
smoothSolver:  Solving for k, Initial residual = 0.0253547, Final residual = 0.00165611, No Iterations 3
ExecutionTime = 0.645418 s  ClockTime = 1 s

Time = 10s

smoothSolver:  Solving for Ux, Initial residual = 0.00291155, Final residual = 0.000220747, No Iterations 5
smoothSolver:  Solving for Uy, Initial residual = 0.00367259, Final residual = 0.000210646, No Iterations 4
GAMG:  Solving for p, Initial residual = 0.0123551, Final residual = 0.00106394, No Iterations 6
time step continuity errors : sum local = 0.000261455, global = -4.72738e-05, cumulative = 0.000539891
smoothSolver:  Solving for ReThetat, Initial residual = 0.0650663, Final residual = 0.00178505, No Iterations 1
smoothSolver:  Solving for gammaInt, Initial residual = 0.00352586, Final residual = 0.000181795, No Iterations 2
smoothSolver:  Solving for omega, Initial residual = 0.000257921, Final residual = 1.02032e-05, No Iterations 1
smoothSolver:  Solving for k, Initial residual = 0.0210295, Final residual = 0.00145073, No Iterations 3
ExecutionTime = 0.686835 s  ClockTime = 1 s

Time = 11s

smoothSolver:  Solving for Ux, Initial residual = 0.00258406, Final residual = 0.000196777, No Iterations 5
smoothSolver:  Solving for Uy, Initial residual = 0.00339449, Final residual = 0.000179942, No Iterations 4
GAMG:  Solving for p, Initial residual = 0.0145353, Final residual = 0.0013492, No Iterations 5
time step continuity errors : sum local = 0.000252726, global = -2.27662e-06, cumulative = 0.000537614
smoothSolver:  Solving for ReThetat, Initial residual = 0.0543418, Final residual = 0.00157838, No Iterations 1
smoothSolver:  Solving for gammaInt, Initial residual = 0.00741899, Final residual = 0.000325074, No Iterations 2
smoothSolver:  Solving for omega, Initial residual = 0.000140907, Final residual = 5.85292e-06, No Iterations 1
smoothSolver:  Solving for k, Initial residual = 0.0177376, Final residual = 0.00127146, No Iterations 3
ExecutionTime = 0.72632 s  ClockTime = 1 s

Time = 12s

smoothSolver:  Solving for Ux, Initial residual = 0.00222301, Final residual = 0.000174148, No Iterations 5
smoothSolver:  Solving for Uy, Initial residual = 0.00318103, Final residual = 0.000295152, No Iterations 3
GAMG:  Solving for p, Initial residual = 0.0154602, Final residual = 0.00128873, No Iterations 6
time step continuity errors : sum local = 0.000182971, global = -3.40147e-05, cumulative = 0.000503599
smoothSolver:  Solving for ReThetat, Initial residual = 0.0457391, Final residual = 0.00140585, No Iterations 1
smoothSolver:  Solving for gammaInt, Initial residual = 0.00384566, Final residual = 0.000148547, No Iterations 2
smoothSolver:  Solving for omega, Initial residual = 9.61772e-05, Final residual = 6.29604e-06, No Iterations 1
smoothSolver:  Solving for k, Initial residual = 0.0151777, Final residual = 0.00109228, No Iterations 3
ExecutionTime = 0.766132 s  ClockTime = 1 s

Time = 13s

smoothSolver:  Solving for Ux, Initial residual = 0.00199002, Final residual = 0.000158822, No Iterations 5
smoothSolver:  Solving for Uy, Initial residual = 0.00301578, Final residual = 0.000261926, No Iterations 3
GAMG:  Solving for p, Initial residual = 0.0199824, Final residual = 0.00173301, No Iterations 5
time step continuity errors : sum local = 0.000169397, global = -6.49237e-06, cumulative = 0.000497107
smoothSolver:  Solving for ReThetat, Initial residual = 0.0388319, Final residual = 0.00125825, No Iterations 1
smoothSolver:  Solving for gammaInt, Initial residual = 0.00706014, Final residual = 0.000247278, No Iterations 2
smoothSolver:  Solving for omega, Initial residual = 5.41906e-05, Final residual = 4.24781e-06, No Iterations 1
smoothSolver:  Solving for k, Initial residual = 0.0131847, Final residual = 0.000933466, No Iterations 3
ExecutionTime = 0.804392 s  ClockTime = 1 s

Time = 14s

smoothSolver:  Solving for Ux, Initial residual = 0.00178121, Final residual = 0.000142806, No Iterations 5
smoothSolver:  Solving for Uy, Initial residual = 0.00285471, Final residual = 0.000235352, No Iterations 3
GAMG:  Solving for p, Initial residual = 0.0249514, Final residual = 0.00230692, No Iterations 5
time step continuity errors : sum local = 0.000151267, global = -6.12453e-06, cumulative = 0.000490982
smoothSolver:  Solving for ReThetat, Initial residual = 0.0331394, Final residual = 0.00112973, No Iterations 1
smoothSolver:  Solving for gammaInt, Initial residual = 0.00397026, Final residual = 0.000129341, No Iterations 2
smoothSolver:  Solving for omega, Initial residual = 4.08372e-05, Final residual = 1.47476e-06, No Iterations 2
smoothSolver:  Solving for k, Initial residual = 0.0115838, Final residual = 0.000788468, No Iterations 3
ExecutionTime = 0.842765 s  ClockTime = 1 s

Time = 15s

smoothSolver:  Solving for Ux, Initial residual = 0.001601, Final residual = 0.000131659, No Iterations 5
smoothSolver:  Solving for Uy, Initial residual = 0.00270506, Final residual = 0.000215844, No Iterations 3
GAMG:  Solving for p, Initial residual = 0.0397587, Final residual = 0.00347651, No Iterations 6
time step continuity errors : sum local = 0.000123067, global = 1.99958e-05, cumulative = 0.000510978
smoothSolver:  Solving for ReThetat, Initial residual = 0.0283667, Final residual = 0.00101806, No Iterations 1
smoothSolver:  Solving for gammaInt, Initial residual = 0.00831311, Final residual = 0.000242992, No Iterations 2
smoothSolver:  Solving for omega, Initial residual = 2.16822e-05, Final residual = 9.8765e-07, No Iterations 2
smoothSolver:  Solving for k, Initial residual = 0.0103357, Final residual = 0.000664507, No Iterations 3
ExecutionTime = 0.883216 s  ClockTime = 1 s

Time = 16s

smoothSolver:  Solving for Ux, Initial residual = 0.00146699, Final residual = 0.000119938, No Iterations 5
smoothSolver:  Solving for Uy, Initial residual = 0.00254902, Final residual = 0.000203094, No Iterations 3
GAMG:  Solving for p, Initial residual = 0.0570411, Final residual = 0.00429164, No Iterations 7
time step continuity errors : sum local = 9.24035e-05, global = -2.21343e-05, cumulative = 0.000488844
smoothSolver:  Solving for ReThetat, Initial residual = 0.0243205, Final residual = 0.000921071, No Iterations 1
smoothSolver:  Solving for gammaInt, Initial residual = 0.00692453, Final residual = 0.00021128, No Iterations 2
smoothSolver:  Solving for omega, Initial residual = 1.93343e-05, Final residual = 9.58387e-07, No Iterations 2
smoothSolver:  Solving for k, Initial residual = 0.00926548, Final residual = 0.000544535, No Iterations 3
ExecutionTime = 0.925537 s  ClockTime = 1 s

Time = 17s

smoothSolver:  Solving for Ux, Initial residual = 0.00134841, Final residual = 0.000111483, No Iterations 5
smoothSolver:  Solving for Uy, Initial residual = 0.00241798, Final residual = 0.000194779, No Iterations 3
GAMG:  Solving for p, Initial residual = 0.024028, Final residual = 0.00218395, No Iterations 6
time step continuity errors : sum local = 9.81052e-05, global = 2.21107e-05, cumulative = 0.000510955
smoothSolver:  Solving for ReThetat, Initial residual = 0.0210224, Final residual = 0.000837978, No Iterations 1
smoothSolver:  Solving for gammaInt, Initial residual = 0.00474699, Final residual = 0.000134805, No Iterations 2
smoothSolver:  Solving for omega, Initial residual = 1.13421e-05, Final residual = 8.11876e-07, No Iterations 2
smoothSolver:  Solving for k, Initial residual = 0.00834058, Final residual = 0.000436283, No Iterations 3
ExecutionTime = 0.964852 s  ClockTime = 1 s

Time = 18s

smoothSolver:  Solving for Ux, Initial residual = 0.00125776, Final residual = 0.000102466, No Iterations 5
smoothSolver:  Solving for Uy, Initial residual = 0.00227151, Final residual = 0.000189205, No Iterations 3
GAMG:  Solving for p, Initial residual = 0.0160873, Final residual = 0.00130286, No Iterations 7
time step continuity errors : sum local = 8.09306e-05, global = -1.86664e-05, cumulative = 0.000492288
smoothSolver:  Solving for ReThetat, Initial residual = 0.0181225, Final residual = 0.000763475, No Iterations 1
smoothSolver:  Solving for gammaInt, Initial residual = 0.00581672, Final residual = 0.000167087, No Iterations 2
smoothSolver:  Solving for omega, Initial residual = 1.15214e-05, Final residual = 7.71266e-07, No Iterations 2
smoothSolver:  Solving for k, Initial residual = 0.00755029, Final residual = 0.00074585, No Iterations 2
ExecutionTime = 1.00664 s  ClockTime = 1 s

Time = 19s

smoothSolver:  Solving for Ux, Initial residual = 0.00116171, Final residual = 9.54334e-05, No Iterations 5
smoothSolver:  Solving for Uy, Initial residual = 0.00214385, Final residual = 0.000184508, No Iterations 3
GAMG:  Solving for p, Initial residual = 0.0113882, Final residual = 0.00105412, No Iterations 6
time step continuity errors : sum local = 8.07223e-05, global = 1.89415e-05, cumulative = 0.00051123
smoothSolver:  Solving for ReThetat, Initial residual = 0.0156796, Final residual = 0.000683731, No Iterations 1
smoothSolver:  Solving for gammaInt, Initial residual = 0.00394677, Final residual = 0.000102517, No Iterations 2
smoothSolver:  Solving for omega, Initial residual = 7.71085e-06, Final residual = 6.8713e-07, No Iterations 2
smoothSolver:  Solving for k, Initial residual = 0.00686047, Final residual = 0.000614224, No Iterations 2
ExecutionTime = 1.0476 s  ClockTime = 2 s

Time = 20s

smoothSolver:  Solving for Ux, Initial residual = 0.00108329, Final residual = 8.82841e-05, No Iterations 5
smoothSolver:  Solving for Uy, Initial residual = 0.002014, Final residual = 0.000180133, No Iterations 3
GAMG:  Solving for p, Initial residual = 0.00920702, Final residual = 0.000686398, No Iterations 7
time step continuity errors : sum local = 5.94068e-05, global = -1.31593e-05, cumulative = 0.00049807
smoothSolver:  Solving for ReThetat, Initial residual = 0.0135385, Final residual = 0.000619429, No Iterations 1
smoothSolver:  Solving for gammaInt, Initial residual = 0.00471912, Final residual = 0.000119481, No Iterations 2
smoothSolver:  Solving for omega, Initial residual = 8.13944e-06, Final residual = 6.42307e-07, No Iterations 2
smoothSolver:  Solving for k, Initial residual = 0.0062477, Final residual = 0.000504898, No Iterations 2
ExecutionTime = 1.08934 s  ClockTime = 2 s

Time = 21s

smoothSolver:  Solving for Ux, Initial residual = 0.00100374, Final residual = 8.23177e-05, No Iterations 5
smoothSolver:  Solving for Uy, Initial residual = 0.00190407, Final residual = 0.000174576, No Iterations 3
GAMG:  Solving for p, Initial residual = 0.00759827, Final residual = 0.000749087, No Iterations 6
time step continuity errors : sum local = 6.89802e-05, global = 1.2087e-05, cumulative = 0.000510157
smoothSolver:  Solving for ReThetat, Initial residual = 0.0117819, Final residual = 0.000566426, No Iterations 1
smoothSolver:  Solving for gammaInt, Initial residual = 0.00355733, Final residual = 8.53557e-05, No Iterations 2
smoothSolver:  Solving for omega, Initial residual = 6.13977e-06, Final residual = 5.84921e-07, No Iterations 2
smoothSolver:  Solving for k, Initial residual = 0.00568321, Final residual = 0.000414839, No Iterations 2
ExecutionTime = 1.12902 s  ClockTime = 2 s

Time = 22s

smoothSolver:  Solving for Ux, Initial residual = 0.000935925, Final residual = 7.65129e-05, No Iterations 5
smoothSolver:  Solving for Uy, Initial residual = 0.001807, Final residual = 0.00016782, No Iterations 3
GAMG:  Solving for p, Initial residual = 0.00685462, Final residual = 0.000570276, No Iterations 7
time step continuity errors : sum local = 5.3211e-05, global = -1.27771e-05, cumulative = 0.00049738
smoothSolver:  Solving for ReThetat, Initial residual = 0.0101958, Final residual = 0.000519892, No Iterations 1
smoothSolver:  Solving for gammaInt, Initial residual = 0.00334978, Final residual = 0.000288191, No Iterations 1
smoothSolver:  Solving for omega, Initial residual = 6.42882e-06, Final residual = 5.43468e-07, No Iterations 2
smoothSolver:  Solving for k, Initial residual = 0.00514999, Final residual = 0.000339908, No Iterations 2
ExecutionTime = 1.17003 s  ClockTime = 2 s

Time = 23s

smoothSolver:  Solving for Ux, Initial residual = 0.000871291, Final residual = 7.14463e-05, No Iterations 5
smoothSolver:  Solving for Uy, Initial residual = 0.00172139, Final residual = 0.000159597, No Iterations 3
GAMG:  Solving for p, Initial residual = 0.00631298, Final residual = 0.000590291, No Iterations 7
time step continuity errors : sum local = 5.34357e-05, global = -1.53063e-05, cumulative = 0.000482074
smoothSolver:  Solving for ReThetat, Initial residual = 0.00885054, Final residual = 0.000479175, No Iterations 1
smoothSolver:  Solving for gammaInt, Initial residual = 0.0039884, Final residual = 9.05228e-05, No Iterations 2
smoothSolver:  Solving for omega, Initial residual = 5.38738e-06, Final residual = 4.9953e-07, No Iterations 2
smoothSolver:  Solving for k, Initial residual = 0.00467095, Final residual = 0.000286913, No Iterations 2
ExecutionTime = 1.21158 s  ClockTime = 2 s

Time = 24s

smoothSolver:  Solving for Ux, Initial residual = 0.000817294, Final residual = 6.66538e-05, No Iterations 5
smoothSolver:  Solving for Uy, Initial residual = 0.0016554, Final residual = 0.000150283, No Iterations 3
GAMG:  Solving for p, Initial residual = 0.00637899, Final residual = 0.000534206, No Iterations 8
time step continuity errors : sum local = 4.42108e-05, global = -1.00398e-05, cumulative = 0.000472034
smoothSolver:  Solving for ReThetat, Initial residual = 0.00768495, Final residual = 0.000442713, No Iterations 1
smoothSolver:  Solving for gammaInt, Initial residual = 0.00304395, Final residual = 0.000263593, No Iterations 1
smoothSolver:  Solving for omega, Initial residual = 5.36182e-06, Final residual = 4.64262e-07, No Iterations 2
smoothSolver:  Solving for k, Initial residual = 0.00420392, Final residual = 0.000241488, No Iterations 2
ExecutionTime = 1.25398 s  ClockTime = 2 s

Time = 25s

smoothSolver:  Solving for Ux, Initial residual = 0.000766825, Final residual = 6.23708e-05, No Iterations 5
smoothSolver:  Solving for Uy, Initial residual = 0.00158937, Final residual = 0.000140114, No Iterations 3
GAMG:  Solving for p, Initial residual = 0.00680738, Final residual = 0.000627391, No Iterations 8
time step continuity errors : sum local = 4.53003e-05, global = -9.75874e-06, cumulative = 0.000462275
smoothSolver:  Solving for ReThetat, Initial residual = 0.00664881, Final residual = 0.000409713, No Iterations 1
smoothSolver:  Solving for gammaInt, Initial residual = 0.00268574, Final residual = 0.000231982, No Iterations 1
smoothSolver:  Solving for omega, Initial residual = 4.79199e-06, Final residual = 4.30364e-07, No Iterations 2
smoothSolver:  Solving for k, Initial residual = 0.00377177, Final residual = 0.000207742, No Iterations 2
ExecutionTime = 1.29571 s  ClockTime = 2 s

Time = 26s

smoothSolver:  Solving for Ux, Initial residual = 0.000722703, Final residual = 5.83372e-05, No Iterations 5
smoothSolver:  Solving for Uy, Initial residual = 0.0015224, Final residual = 0.000129526, No Iterations 3
GAMG:  Solving for p, Initial residual = 0.0076296, Final residual = 0.000617579, No Iterations 10
time step continuity errors : sum local = 3.75183e-05, global = -9.54765e-06, cumulative = 0.000452728
smoothSolver:  Solving for ReThetat, Initial residual = 0.00575304, Final residual = 0.000380094, No Iterations 1
smoothSolver:  Solving for gammaInt, Initial residual = 0.00243682, Final residual = 0.000200266, No Iterations 1
smoothSolver:  Solving for omega, Initial residual = 4.5911e-06, Final residual = 4.01176e-07, No Iterations 2
smoothSolver:  Solving for k, Initial residual = 0.00337166, Final residual = 0.000182812, No Iterations 2
ExecutionTime = 1.3397 s  ClockTime = 2 s

Time = 27s

smoothSolver:  Solving for Ux, Initial residual = 0.000681713, Final residual = 5.46978e-05, No Iterations 5
smoothSolver:  Solving for Uy, Initial residual = 0.00144572, Final residual = 0.000118746, No Iterations 3
GAMG:  Solving for p, Initial residual = 0.0092032, Final residual = 0.00080314, No Iterations 10
time step continuity errors : sum local = 3.85223e-05, global = -9.64715e-06, cumulative = 0.000443081
smoothSolver:  Solving for ReThetat, Initial residual = 0.0049878, Final residual = 0.000353941, No Iterations 1
smoothSolver:  Solving for gammaInt, Initial residual = 0.00225922, Final residual = 0.000166786, No Iterations 1
smoothSolver:  Solving for omega, Initial residual = 4.20875e-06, Final residual = 3.74289e-07, No Iterations 2
smoothSolver:  Solving for k, Initial residual = 0.00300096, Final residual = 0.000164355, No Iterations 2
ExecutionTime = 1.38569 s  ClockTime = 2 s

Time = 28s

smoothSolver:  Solving for Ux, Initial residual = 0.000645215, Final residual = 5.12829e-05, No Iterations 5
smoothSolver:  Solving for Uy, Initial residual = 0.00137151, Final residual = 0.000108176, No Iterations 3
GAMG:  Solving for p, Initial residual = 0.0121976, Final residual = 0.0010321, No Iterations 10
time step continuity errors : sum local = 3.55452e-05, global = -1.07322e-05, cumulative = 0.000432349
smoothSolver:  Solving for ReThetat, Initial residual = 0.00434488, Final residual = 0.000332282, No Iterations 1
smoothSolver:  Solving for gammaInt, Initial residual = 0.00245104, Final residual = 0.00020269, No Iterations 1
smoothSolver:  Solving for omega, Initial residual = 3.96847e-06, Final residual = 3.50571e-07, No Iterations 2
smoothSolver:  Solving for k, Initial residual = 0.00265991, Final residual = 0.000150185, No Iterations 2
ExecutionTime = 1.43035 s  ClockTime = 2 s

Time = 29s

smoothSolver:  Solving for Ux, Initial residual = 0.000610087, Final residual = 4.81916e-05, No Iterations 5
smoothSolver:  Solving for Uy, Initial residual = 0.00128855, Final residual = 9.80079e-05, No Iterations 3
GAMG:  Solving for p, Initial residual = 0.0194381, Final residual = 0.00178413, No Iterations 10
time step continuity errors : sum local = 3.67842e-05, global = -1.15841e-05, cumulative = 0.000420764
smoothSolver:  Solving for ReThetat, Initial residual = 0.00382174, Final residual = 0.000319055, No Iterations 1
smoothSolver:  Solving for gammaInt, Initial residual = 0.00175289, Final residual = 0.00013246, No Iterations 1
smoothSolver:  Solving for omega, Initial residual = 3.67637e-06, Final residual = 3.2875e-07, No Iterations 2
smoothSolver:  Solving for k, Initial residual = 0.00234587, Final residual = 0.000139027, No Iterations 2
ExecutionTime = 1.47597 s  ClockTime = 2 s

Time = 30s

smoothSolver:  Solving for Ux, Initial residual = 0.000579568, Final residual = 4.53001e-05, No Iterations 5
smoothSolver:  Solving for Uy, Initial residual = 0.00121426, Final residual = 8.88493e-05, No Iterations 3
GAMG:  Solving for p, Initial residual = 0.0204447, Final residual = 0.00176545, No Iterations 10
time step continuity errors : sum local = 3.31302e-05, global = -1.227e-05, cumulative = 0.000408494
smoothSolver:  Solving for ReThetat, Initial residual = 0.00340574, Final residual = 0.000308383, No Iterations 1
smoothSolver:  Solving for gammaInt, Initial residual = 0.00138267, Final residual = 0.00010479, No Iterations 1
smoothSolver:  Solving for omega, Initial residual = 3.44712e-06, Final residual = 3.09099e-07, No Iterations 2
smoothSolver:  Solving for k, Initial residual = 0.00206124, Final residual = 0.000130166, No Iterations 2
ExecutionTime = 1.52334 s  ClockTime = 2 s

Time = 31s

smoothSolver:  Solving for Ux, Initial residual = 0.000548559, Final residual = 4.26744e-05, No Iterations 5
smoothSolver:  Solving for Uy, Initial residual = 0.00113568, Final residual = 8.05713e-05, No Iterations 3
GAMG:  Solving for p, Initial residual = 0.0110405, Final residual = 0.0010559, No Iterations 10
time step continuity errors : sum local = 3.47274e-05, global = -1.19321e-05, cumulative = 0.000396562
smoothSolver:  Solving for ReThetat, Initial residual = 0.00306951, Final residual = 0.000298083, No Iterations 1
smoothSolver:  Solving for gammaInt, Initial residual = 0.00100962, Final residual = 8.31982e-05, No Iterations 1
smoothSolver:  Solving for omega, Initial residual = 3.20786e-06, Final residual = 2.90952e-07, No Iterations 2
smoothSolver:  Solving for k, Initial residual = 0.00180518, Final residual = 0.000122972, No Iterations 2
ExecutionTime = 1.56833 s  ClockTime = 2 s

Time = 32s

smoothSolver:  Solving for Ux, Initial residual = 0.000522524, Final residual = 4.02612e-05, No Iterations 5
smoothSolver:  Solving for Uy, Initial residual = 0.00106296, Final residual = 7.38606e-05, No Iterations 3
GAMG:  Solving for p, Initial residual = 0.00749093, Final residual = 0.000681108, No Iterations 10
time step continuity errors : sum local = 3.16864e-05, global = -1.14101e-05, cumulative = 0.000385152
smoothSolver:  Solving for ReThetat, Initial residual = 0.00280736, Final residual = 0.000146083, No Iterations 2
smoothSolver:  Solving for gammaInt, Initial residual = 0.000675266, Final residual = 5.53769e-05, No Iterations 1
smoothSolver:  Solving for omega, Initial residual = 2.99927e-06, Final residual = 2.7412e-07, No Iterations 2
smoothSolver:  Solving for k, Initial residual = 0.00157609, Final residual = 0.000117126, No Iterations 2
ExecutionTime = 1.61247 s  ClockTime = 2 s

Time = 33s

smoothSolver:  Solving for Ux, Initial residual = 0.0004958, Final residual = 3.80899e-05, No Iterations 5
smoothSolver:  Solving for Uy, Initial residual = 0.00098897, Final residual = 6.87867e-05, No Iterations 3
GAMG:  Solving for p, Initial residual = 0.00550978, Final residual = 0.000538856, No Iterations 10
time step continuity errors : sum local = 3.21747e-05, global = -1.05384e-05, cumulative = 0.000374614
smoothSolver:  Solving for ReThetat, Initial residual = 0.0025743, Final residual = 0.000136503, No Iterations 2
smoothSolver:  Solving for gammaInt, Initial residual = 0.000543387, Final residual = 3.90074e-05, No Iterations 1
smoothSolver:  Solving for omega, Initial residual = 2.79415e-06, Final residual = 2.58271e-07, No Iterations 2
smoothSolver:  Solving for k, Initial residual = 0.0013734, Final residual = 0.000112429, No Iterations 2
ExecutionTime = 1.65776 s  ClockTime = 2 s

Time = 34s

smoothSolver:  Solving for Ux, Initial residual = 0.000473934, Final residual = 3.60729e-05, No Iterations 5
smoothSolver:  Solving for Uy, Initial residual = 0.000921855, Final residual = 6.51193e-05, No Iterations 3
GAMG:  Solving for p, Initial residual = 0.00439238, Final residual = 0.000394806, No Iterations 10
time step continuity errors : sum local = 2.85101e-05, global = -9.80964e-06, cumulative = 0.000364804
smoothSolver:  Solving for ReThetat, Initial residual = 0.00241372, Final residual = 0.00012713, No Iterations 2
smoothSolver:  Solving for gammaInt, Initial residual = 0.00073226, Final residual = 3.95399e-05, No Iterations 1
smoothSolver:  Solving for omega, Initial residual = 2.60829e-06, Final residual = 2.43333e-07, No Iterations 2
smoothSolver:  Solving for k, Initial residual = 0.00119715, Final residual = 0.00010888, No Iterations 2
ExecutionTime = 1.70308 s  ClockTime = 2 s

Time = 35s

smoothSolver:  Solving for Ux, Initial residual = 0.000450631, Final residual = 3.41911e-05, No Iterations 5
smoothSolver:  Solving for Uy, Initial residual = 0.000858643, Final residual = 6.25568e-05, No Iterations 3
GAMG:  Solving for p, Initial residual = 0.00355748, Final residual = 0.000333636, No Iterations 10
time step continuity errors : sum local = 2.80085e-05, global = -8.5082e-06, cumulative = 0.000356296
smoothSolver:  Solving for ReThetat, Initial residual = 0.00229197, Final residual = 0.000117966, No Iterations 2
smoothSolver:  Solving for gammaInt, Initial residual = 0.000978598, Final residual = 4.21408e-05, No Iterations 1
smoothSolver:  Solving for omega, Initial residual = 2.42882e-06, Final residual = 2.29146e-07, No Iterations 2
smoothSolver:  Solving for k, Initial residual = 0.00104637, Final residual = 5.3973e-05, No Iterations 3
ExecutionTime = 1.74845 s  ClockTime = 2 s

Time = 36s

smoothSolver:  Solving for Ux, Initial residual = 0.000431043, Final residual = 3.24779e-05, No Iterations 5
smoothSolver:  Solving for Uy, Initial residual = 0.000801797, Final residual = 6.08591e-05, No Iterations 3
GAMG:  Solving for p, Initial residual = 0.00306486, Final residual = 0.000259838, No Iterations 10
time step continuity errors : sum local = 2.45843e-05, global = -7.7556e-06, cumulative = 0.00034854
smoothSolver:  Solving for ReThetat, Initial residual = 0.00220362, Final residual = 0.000219711, No Iterations 1
smoothSolver:  Solving for gammaInt, Initial residual = 0.00164608, Final residual = 4.81842e-05, No Iterations 1
smoothSolver:  Solving for omega, Initial residual = 2.26751e-06, Final residual = 2.15899e-07, No Iterations 2
smoothSolver:  Solving for k, Initial residual = 0.000913627, Final residual = 5.27674e-05, No Iterations 3
ExecutionTime = 1.79237 s  ClockTime = 2 s

Time = 37s

smoothSolver:  Solving for Ux, Initial residual = 0.000410401, Final residual = 3.08376e-05, No Iterations 5
smoothSolver:  Solving for Uy, Initial residual = 0.000751355, Final residual = 5.97712e-05, No Iterations 3
GAMG:  Solving for p, Initial residual = 0.00263601, Final residual = 0.000222388, No Iterations 10
time step continuity errors : sum local = 2.32019e-05, global = -6.52318e-06, cumulative = 0.000342017
smoothSolver:  Solving for ReThetat, Initial residual = 0.00214174, Final residual = 0.000210883, No Iterations 1
smoothSolver:  Solving for gammaInt, Initial residual = 0.00197776, Final residual = 5.27705e-05, No Iterations 1
smoothSolver:  Solving for omega, Initial residual = 2.10682e-06, Final residual = 2.02603e-07, No Iterations 2
smoothSolver:  Solving for k, Initial residual = 0.000804555, Final residual = 5.24597e-05, No Iterations 3
ExecutionTime = 1.83666 s  ClockTime = 2 s

Time = 38s

smoothSolver:  Solving for Ux, Initial residual = 0.000392494, Final residual = 2.93328e-05, No Iterations 5
smoothSolver:  Solving for Uy, Initial residual = 0.00070748, Final residual = 5.90779e-05, No Iterations 3
GAMG:  Solving for p, Initial residual = 0.00236425, Final residual = 0.000181227, No Iterations 10
time step continuity errors : sum local = 2.04553e-05, global = -5.44801e-06, cumulative = 0.000336569
smoothSolver:  Solving for ReThetat, Initial residual = 0.00205888, Final residual = 0.000200888, No Iterations 1
smoothSolver:  Solving for gammaInt, Initial residual = 0.00225064, Final residual = 5.96329e-05, No Iterations 1
smoothSolver:  Solving for omega, Initial residual = 1.95333e-06, Final residual = 1.8951e-07, No Iterations 2
smoothSolver:  Solving for k, Initial residual = 0.000732051, Final residual = 5.3064e-05, No Iterations 3
ExecutionTime = 1.88234 s  ClockTime = 2 s

Time = 39s

smoothSolver:  Solving for Ux, Initial residual = 0.000373999, Final residual = 2.78665e-05, No Iterations 5
smoothSolver:  Solving for Uy, Initial residual = 0.000672145, Final residual = 5.85416e-05, No Iterations 3
GAMG:  Solving for p, Initial residual = 0.00210976, Final residual = 0.000158888, No Iterations 10
time step continuity errors : sum local = 1.9106e-05, global = -4.5172e-06, cumulative = 0.000332052
smoothSolver:  Solving for ReThetat, Initial residual = 0.00195747, Final residual = 0.000190557, No Iterations 1
smoothSolver:  Solving for gammaInt, Initial residual = 0.00283464, Final residual = 8.06701e-05, No Iterations 1
smoothSolver:  Solving for omega, Initial residual = 1.80506e-06, Final residual = 1.76641e-07, No Iterations 2
smoothSolver:  Solving for k, Initial residual = 0.000697194, Final residual = 5.48547e-05, No Iterations 3
ExecutionTime = 1.92714 s  ClockTime = 2 s

Time = 40s

smoothSolver:  Solving for Ux, Initial residual = 0.000357378, Final residual = 2.65001e-05, No Iterations 5
smoothSolver:  Solving for Uy, Initial residual = 0.000642425, Final residual = 5.79732e-05, No Iterations 3
GAMG:  Solving for p, Initial residual = 0.00192526, Final residual = 0.000185761, No Iterations 8
time step continuity errors : sum local = 2.35167e-05, global = -5.45594e-06, cumulative = 0.000326596
smoothSolver:  Solving for ReThetat, Initial residual = 0.0018303, Final residual = 0.0001804, No Iterations 1
smoothSolver:  Solving for gammaInt, Initial residual = 0.00326685, Final residual = 7.33391e-05, No Iterations 1
smoothSolver:  Solving for omega, Initial residual = 1.66352e-06, Final residual = 1.64005e-07, No Iterations 2
smoothSolver:  Solving for k, Initial residual = 0.000681749, Final residual = 5.68677e-05, No Iterations 3
ExecutionTime = 1.96868 s  ClockTime = 2 s

Time = 41s

smoothSolver:  Solving for Ux, Initial residual = 0.000340332, Final residual = 2.5143e-05, No Iterations 5
smoothSolver:  Solving for Uy, Initial residual = 0.000616728, Final residual = 5.71165e-05, No Iterations 3
GAMG:  Solving for p, Initial residual = 0.00174914, Final residual = 0.00013296, No Iterations 10
time step continuity errors : sum local = 1.74706e-05, global = -3.51533e-06, cumulative = 0.000323081
smoothSolver:  Solving for ReThetat, Initial residual = 0.00168434, Final residual = 8.5193e-05, No Iterations 2
smoothSolver:  Solving for gammaInt, Initial residual = 0.00278499, Final residual = 7.09506e-05, No Iterations 1
smoothSolver:  Solving for omega, Initial residual = 1.52704e-06, Final residual = 1.51647e-07, No Iterations 2
smoothSolver:  Solving for k, Initial residual = 0.00067613, Final residual = 5.93334e-05, No Iterations 3
ExecutionTime = 2.01494 s  ClockTime = 2 s

Time = 42s

smoothSolver:  Solving for Ux, Initial residual = 0.000324837, Final residual = 2.38786e-05, No Iterations 5
smoothSolver:  Solving for Uy, Initial residual = 0.000598015, Final residual = 5.59967e-05, No Iterations 3
GAMG:  Solving for p, Initial residual = 0.00160518, Final residual = 0.000144874, No Iterations 8
time step continuity errors : sum local = 1.97182e-05, global = -4.14408e-06, cumulative = 0.000318937
smoothSolver:  Solving for ReThetat, Initial residual = 0.00150623, Final residual = 7.81466e-05, No Iterations 2
smoothSolver:  Solving for gammaInt, Initial residual = 0.00608142, Final residual = 0.000223793, No Iterations 1
smoothSolver:  Solving for omega, Initial residual = 1.39771e-06, Final residual = 1.39708e-07, No Iterations 2
smoothSolver:  Solving for k, Initial residual = 0.0007295, Final residual = 6.75266e-05, No Iterations 3
ExecutionTime = 2.05832 s  ClockTime = 3 s

Time = 43s

smoothSolver:  Solving for Ux, Initial residual = 0.000309092, Final residual = 2.26148e-05, No Iterations 5
smoothSolver:  Solving for Uy, Initial residual = 0.000579327, Final residual = 5.43541e-05, No Iterations 3
GAMG:  Solving for p, Initial residual = 0.00150011, Final residual = 0.000108151, No Iterations 10
time step continuity errors : sum local = 1.50369e-05, global = -2.98867e-06, cumulative = 0.000315948
smoothSolver:  Solving for ReThetat, Initial residual = 0.00133126, Final residual = 7.19473e-05, No Iterations 2
smoothSolver:  Solving for gammaInt, Initial residual = 0.00549896, Final residual = 9.8761e-05, No Iterations 1
smoothSolver:  Solving for omega, Initial residual = 1.27937e-06, Final residual = 1.27742e-07, No Iterations 2
smoothSolver:  Solving for k, Initial residual = 0.000762395, Final residual = 7.34471e-05, No Iterations 3
ExecutionTime = 2.10255 s  ClockTime = 3 s

Time = 44s

smoothSolver:  Solving for Ux, Initial residual = 0.000294349, Final residual = 2.14394e-05, No Iterations 5
smoothSolver:  Solving for Uy, Initial residual = 0.000565038, Final residual = 5.22975e-05, No Iterations 3
GAMG:  Solving for p, Initial residual = 0.00142164, Final residual = 0.000131426, No Iterations 8
time step continuity errors : sum local = 1.86083e-05, global = -3.95689e-06, cumulative = 0.000311991
smoothSolver:  Solving for ReThetat, Initial residual = 0.00115478, Final residual = 6.6408e-05, No Iterations 2
smoothSolver:  Solving for gammaInt, Initial residual = 0.00469204, Final residual = 8.56481e-05, No Iterations 1
smoothSolver:  Solving for omega, Initial residual = 1.17113e-06, Final residual = 1.161e-07, No Iterations 2
smoothSolver:  Solving for k, Initial residual = 0.000798169, Final residual = 7.97022e-05, No Iterations 3
ExecutionTime = 2.1458 s  ClockTime = 3 s

Time = 45s

smoothSolver:  Solving for Ux, Initial residual = 0.000280011, Final residual = 2.0263e-05, No Iterations 5
smoothSolver:  Solving for Uy, Initial residual = 0.000548535, Final residual = 4.97476e-05, No Iterations 3
GAMG:  Solving for p, Initial residual = 0.00136648, Final residual = 0.000106445, No Iterations 10
time step continuity errors : sum local = 1.52137e-05, global = -3.03357e-06, cumulative = 0.000308958
smoothSolver:  Solving for ReThetat, Initial residual = 0.000982441, Final residual = 6.1471e-05, No Iterations 2
smoothSolver:  Solving for gammaInt, Initial residual = 0.00426276, Final residual = 6.32819e-05, No Iterations 1
smoothSolver:  Solving for omega, Initial residual = 1.07598e-06, Final residual = 1.05679e-07, No Iterations 2
smoothSolver:  Solving for k, Initial residual = 0.000831209, Final residual = 4.29159e-05, No Iterations 4
ExecutionTime = 2.19162 s  ClockTime = 3 s

Time = 46s

smoothSolver:  Solving for Ux, Initial residual = 0.000266327, Final residual = 1.91573e-05, No Iterations 5
smoothSolver:  Solving for Uy, Initial residual = 0.000534239, Final residual = 4.69219e-05, No Iterations 3
GAMG:  Solving for p, Initial residual = 0.00130101, Final residual = 9.76691e-05, No Iterations 10
time step continuity errors : sum local = 1.40427e-05, global = -2.8395e-06, cumulative = 0.000306118
smoothSolver:  Solving for ReThetat, Initial residual = 0.000830246, Final residual = 5.73931e-05, No Iterations 2
smoothSolver:  Solving for gammaInt, Initial residual = 0.00378977, Final residual = 6.98393e-05, No Iterations 1
smoothSolver:  Solving for omega, Initial residual = 9.87519e-07, Final residual = 9.60991e-08, No Iterations 2
smoothSolver:  Solving for k, Initial residual = 0.000865095, Final residual = 4.64196e-05, No Iterations 4
ExecutionTime = 2.23829 s  ClockTime = 3 s

Time = 47s

smoothSolver:  Solving for Ux, Initial residual = 0.000253641, Final residual = 1.80573e-05, No Iterations 5
smoothSolver:  Solving for Uy, Initial residual = 0.000517773, Final residual = 4.38362e-05, No Iterations 3
GAMG:  Solving for p, Initial residual = 0.00128977, Final residual = 9.81512e-05, No Iterations 10
time step continuity errors : sum local = 1.41342e-05, global = -2.93526e-06, cumulative = 0.000303183
smoothSolver:  Solving for ReThetat, Initial residual = 0.000711402, Final residual = 5.38185e-05, No Iterations 2
smoothSolver:  Solving for gammaInt, Initial residual = 0.00883306, Final residual = 0.000278114, No Iterations 1
smoothSolver:  Solving for omega, Initial residual = 9.05633e-07, Final residual = 8.72318e-08, No Iterations 2
smoothSolver:  Solving for k, Initial residual = 0.000993745, Final residual = 5.41426e-05, No Iterations 4
ExecutionTime = 2.28516 s  ClockTime = 3 s

Time = 48s

smoothSolver:  Solving for Ux, Initial residual = 0.000240868, Final residual = 1.70218e-05, No Iterations 5
smoothSolver:  Solving for Uy, Initial residual = 0.000499175, Final residual = 4.06075e-05, No Iterations 3
GAMG:  Solving for p, Initial residual = 0.00128867, Final residual = 0.000101235, No Iterations 10
time step continuity errors : sum local = 1.45682e-05, global = -2.79783e-06, cumulative = 0.000300385
smoothSolver:  Solving for ReThetat, Initial residual = 0.000637879, Final residual = 5.06774e-05, No Iterations 2
smoothSolver:  Solving for gammaInt, Initial residual = 0.00898568, Final residual = 0.000158213, No Iterations 1
smoothSolver:  Solving for omega, Initial residual = 8.76753e-07, Final residual = 8.20713e-08, No Iterations 2
smoothSolver:  Solving for k, Initial residual = 0.00108723, Final residual = 6.07054e-05, No Iterations 4
ExecutionTime = 2.33199 s  ClockTime = 3 s

Time = 49s

smoothSolver:  Solving for Ux, Initial residual = 0.000230167, Final residual = 1.59966e-05, No Iterations 5
smoothSolver:  Solving for Uy, Initial residual = 0.000481324, Final residual = 3.73905e-05, No Iterations 3
GAMG:  Solving for p, Initial residual = 0.00128127, Final residual = 9.9869e-05, No Iterations 10
time step continuity errors : sum local = 1.43283e-05, global = -2.4732e-06, cumulative = 0.000297912
smoothSolver:  Solving for ReThetat, Initial residual = 0.000613951, Final residual = 4.78957e-05, No Iterations 2
smoothSolver:  Solving for gammaInt, Initial residual = 0.00663133, Final residual = 0.0001122, No Iterations 1
smoothSolver:  Solving for omega, Initial residual = 8.39516e-07, Final residual = 7.71722e-08, No Iterations 2
smoothSolver:  Solving for k, Initial residual = 0.00115805, Final residual = 6.67747e-05, No Iterations 4
ExecutionTime = 2.3767 s  ClockTime = 3 s

Time = 50s

smoothSolver:  Solving for Ux, Initial residual = 0.000219972, Final residual = 1.50228e-05, No Iterations 5
smoothSolver:  Solving for Uy, Initial residual = 0.000463107, Final residual = 3.42396e-05, No Iterations 3
GAMG:  Solving for p, Initial residual = 0.001238, Final residual = 9.66763e-05, No Iterations 10
time step continuity errors : sum local = 1.38128e-05, global = -2.13175e-06, cumulative = 0.00029578
smoothSolver:  Solving for ReThetat, Initial residual = 0.000640413, Final residual = 4.54389e-05, No Iterations 2
smoothSolver:  Solving for gammaInt, Initial residual = 0.00496372, Final residual = 7.79542e-05, No Iterations 1
smoothSolver:  Solving for omega, Initial residual = 7.92217e-07, Final residual = 7.25053e-08, No Iterations 2
smoothSolver:  Solving for k, Initial residual = 0.00120666, Final residual = 7.21435e-05, No Iterations 4
ExecutionTime = 2.42229 s  ClockTime = 3 s

Time = 51s

smoothSolver:  Solving for Ux, Initial residual = 0.000211111, Final residual = 1.4074e-05, No Iterations 5
smoothSolver:  Solving for Uy, Initial residual = 0.000445092, Final residual = 3.1278e-05, No Iterations 3
GAMG:  Solving for p, Initial residual = 0.00121502, Final residual = 9.01791e-05, No Iterations 10
time step continuity errors : sum local = 1.28181e-05, global = -1.83848e-06, cumulative = 0.000293942
smoothSolver:  Solving for ReThetat, Initial residual = 0.000699059, Final residual = 4.32869e-05, No Iterations 2
smoothSolver:  Solving for gammaInt, Initial residual = 0.00936573, Final residual = 0.000266333, No Iterations 1
smoothSolver:  Solving for omega, Initial residual = 7.45139e-07, Final residual = 6.86132e-08, No Iterations 2
smoothSolver:  Solving for k, Initial residual = 0.00135479, Final residual = 8.17021e-05, No Iterations 4
ExecutionTime = 2.4683 s  ClockTime = 3 s

Time = 52s

smoothSolver:  Solving for Ux, Initial residual = 0.000205786, Final residual = 1.3218e-05, No Iterations 5
smoothSolver:  Solving for Uy, Initial residual = 0.000427632, Final residual = 2.85602e-05, No Iterations 3
GAMG:  Solving for p, Initial residual = 0.00125806, Final residual = 8.71857e-05, No Iterations 10
time step continuity errors : sum local = 1.23343e-05, global = -1.65721e-06, cumulative = 0.000292284
smoothSolver:  Solving for ReThetat, Initial residual = 0.000738696, Final residual = 4.13592e-05, No Iterations 2
smoothSolver:  Solving for gammaInt, Initial residual = 0.0109761, Final residual = 0.000220526, No Iterations 1
smoothSolver:  Solving for omega, Initial residual = 7.49386e-07, Final residual = 6.96324e-08, No Iterations 2
smoothSolver:  Solving for k, Initial residual = 0.00148701, Final residual = 9.13104e-05, No Iterations 4
ExecutionTime = 2.51614 s  ClockTime = 3 s

Time = 53s

smoothSolver:  Solving for Ux, Initial residual = 0.000202635, Final residual = 2.01957e-05, No Iterations 4
smoothSolver:  Solving for Uy, Initial residual = 0.000410803, Final residual = 2.62169e-05, No Iterations 3
GAMG:  Solving for p, Initial residual = 0.00125572, Final residual = 0.000120897, No Iterations 8
time step continuity errors : sum local = 1.70317e-05, global = -3.33441e-06, cumulative = 0.00028895
smoothSolver:  Solving for ReThetat, Initial residual = 0.000753887, Final residual = 3.97047e-05, No Iterations 2
smoothSolver:  Solving for gammaInt, Initial residual = 0.00701662, Final residual = 0.000100253, No Iterations 1
smoothSolver:  Solving for omega, Initial residual = 7.31682e-07, Final residual = 7.08591e-08, No Iterations 2
smoothSolver:  Solving for k, Initial residual = 0.00154887, Final residual = 9.90182e-05, No Iterations 4
ExecutionTime = 2.55903 s  ClockTime = 3 s

Time = 54s

smoothSolver:  Solving for Ux, Initial residual = 0.000198596, Final residual = 1.9677e-05, No Iterations 4
smoothSolver:  Solving for Uy, Initial residual = 0.000388014, Final residual = 2.4261e-05, No Iterations 3
GAMG:  Solving for p, Initial residual = 0.00125595, Final residual = 8.78499e-05, No Iterations 10
time step continuity errors : sum local = 1.22781e-05, global = -1.5156e-06, cumulative = 0.000287434
smoothSolver:  Solving for ReThetat, Initial residual = 0.000739285, Final residual = 3.80608e-05, No Iterations 2
smoothSolver:  Solving for gammaInt, Initial residual = 0.00691611, Final residual = 0.000179209, No Iterations 1
smoothSolver:  Solving for omega, Initial residual = 7.55828e-07, Final residual = 2.6629e-08, No Iterations 3
smoothSolver:  Solving for k, Initial residual = 0.00164558, Final residual = 0.00010808, No Iterations 4
ExecutionTime = 2.60551 s  ClockTime = 3 s

Time = 55s

smoothSolver:  Solving for Ux, Initial residual = 0.000197966, Final residual = 1.9562e-05, No Iterations 4
smoothSolver:  Solving for Uy, Initial residual = 0.000371916, Final residual = 2.29037e-05, No Iterations 3
GAMG:  Solving for p, Initial residual = 0.00127115, Final residual = 0.000124047, No Iterations 8
time step continuity errors : sum local = 1.725e-05, global = -2.46652e-06, cumulative = 0.000284968
smoothSolver:  Solving for ReThetat, Initial residual = 0.000703892, Final residual = 3.64127e-05, No Iterations 2
smoothSolver:  Solving for gammaInt, Initial residual = 0.0108815, Final residual = 0.000233425, No Iterations 1
smoothSolver:  Solving for omega, Initial residual = 7.33805e-07, Final residual = 2.74211e-08, No Iterations 3
smoothSolver:  Solving for k, Initial residual = 0.00178516, Final residual = 0.000119067, No Iterations 4
ExecutionTime = 2.64926 s  ClockTime = 3 s

Time = 56s

smoothSolver:  Solving for Ux, Initial residual = 0.000199417, Final residual = 1.98433e-05, No Iterations 4
smoothSolver:  Solving for Uy, Initial residual = 0.000356593, Final residual = 2.18692e-05, No Iterations 3
GAMG:  Solving for p, Initial residual = 0.00126109, Final residual = 8.85876e-05, No Iterations 10
time step continuity errors : sum local = 1.23155e-05, global = -1.36889e-06, cumulative = 0.000283599
smoothSolver:  Solving for ReThetat, Initial residual = 0.000650226, Final residual = 3.47809e-05, No Iterations 2
smoothSolver:  Solving for gammaInt, Initial residual = 0.00960828, Final residual = 0.000181574, No Iterations 1
smoothSolver:  Solving for omega, Initial residual = 7.8596e-07, Final residual = 3.07193e-08, No Iterations 3
smoothSolver:  Solving for k, Initial residual = 0.00189055, Final residual = 0.000129844, No Iterations 4
ExecutionTime = 2.69521 s  ClockTime = 3 s

Time = 57s

smoothSolver:  Solving for Ux, Initial residual = 0.000202807, Final residual = 1.26981e-05, No Iterations 5
smoothSolver:  Solving for Uy, Initial residual = 0.00034492, Final residual = 2.11877e-05, No Iterations 3
GAMG:  Solving for p, Initial residual = 0.0012735, Final residual = 8.73088e-05, No Iterations 10
time step continuity errors : sum local = 1.21776e-05, global = -1.23822e-06, cumulative = 0.000282361
smoothSolver:  Solving for ReThetat, Initial residual = 0.000585051, Final residual = 3.31823e-05, No Iterations 2
smoothSolver:  Solving for gammaInt, Initial residual = 0.0064979, Final residual = 0.000109261, No Iterations 1
smoothSolver:  Solving for omega, Initial residual = 8.71967e-07, Final residual = 3.56187e-08, No Iterations 3
smoothSolver:  Solving for k, Initial residual = 0.00195064, Final residual = 0.000139147, No Iterations 4
ExecutionTime = 2.74193 s  ClockTime = 3 s

Time = 58s

smoothSolver:  Solving for Ux, Initial residual = 0.00020492, Final residual = 1.32197e-05, No Iterations 5
smoothSolver:  Solving for Uy, Initial residual = 0.000339207, Final residual = 2.08285e-05, No Iterations 3
GAMG:  Solving for p, Initial residual = 0.00127704, Final residual = 9.08181e-05, No Iterations 10
time step continuity errors : sum local = 1.28078e-05, global = -1.37106e-06, cumulative = 0.00028099
smoothSolver:  Solving for ReThetat, Initial residual = 0.000516528, Final residual = 3.17557e-05, No Iterations 2
smoothSolver:  Solving for gammaInt, Initial residual = 0.0112616, Final residual = 0.000327407, No Iterations 1
smoothSolver:  Solving for omega, Initial residual = 9.06356e-07, Final residual = 3.83836e-08, No Iterations 3
smoothSolver:  Solving for k, Initial residual = 0.00212671, Final residual = 0.000152598, No Iterations 4
ExecutionTime = 2.78901 s  ClockTime = 3 s

Time = 59s

smoothSolver:  Solving for Ux, Initial residual = 0.000210123, Final residual = 1.40206e-05, No Iterations 5
smoothSolver:  Solving for Uy, Initial residual = 0.00032928, Final residual = 2.05772e-05, No Iterations 3
GAMG:  Solving for p, Initial residual = 0.00128441, Final residual = 9.25475e-05, No Iterations 10
time step continuity errors : sum local = 1.31826e-05, global = -1.39945e-06, cumulative = 0.00027959
smoothSolver:  Solving for ReThetat, Initial residual = 0.000447515, Final residual = 3.0495e-05, No Iterations 2
smoothSolver:  Solving for gammaInt, Initial residual = 0.0102759, Final residual = 0.000214438, No Iterations 1
smoothSolver:  Solving for omega, Initial residual = 9.7135e-07, Final residual = 4.1968e-08, No Iterations 3
smoothSolver:  Solving for k, Initial residual = 0.00224288, Final residual = 0.00016486, No Iterations 4
ExecutionTime = 2.83526 s  ClockTime = 3 s

Time = 60s

smoothSolver:  Solving for Ux, Initial residual = 0.000215954, Final residual = 1.48406e-05, No Iterations 5
smoothSolver:  Solving for Uy, Initial residual = 0.00031981, Final residual = 2.03995e-05, No Iterations 3
GAMG:  Solving for p, Initial residual = 0.00123699, Final residual = 9.43692e-05, No Iterations 10
time step continuity errors : sum local = 1.35972e-05, global = -1.44164e-06, cumulative = 0.000278149
smoothSolver:  Solving for ReThetat, Initial residual = 0.000381023, Final residual = 2.93387e-05, No Iterations 2
smoothSolver:  Solving for gammaInt, Initial residual = 0.00837393, Final residual = 0.000156034, No Iterations 1
smoothSolver:  Solving for omega, Initial residual = 1.02897e-06, Final residual = 4.51626e-08, No Iterations 3
smoothSolver:  Solving for k, Initial residual = 0.0023083, Final residual = 0.000174846, No Iterations 4
ExecutionTime = 2.88125 s  ClockTime = 3 s

Time = 61s

smoothSolver:  Solving for Ux, Initial residual = 0.00021961, Final residual = 1.56204e-05, No Iterations 5
smoothSolver:  Solving for Uy, Initial residual = 0.000310938, Final residual = 2.02028e-05, No Iterations 3
GAMG:  Solving for p, Initial residual = 0.00120277, Final residual = 9.47274e-05, No Iterations 10
time step continuity errors : sum local = 1.38314e-05, global = -1.43683e-06, cumulative = 0.000276712
smoothSolver:  Solving for ReThetat, Initial residual = 0.000319763, Final residual = 2.82725e-05, No Iterations 2
smoothSolver:  Solving for gammaInt, Initial residual = 0.00870087, Final residual = 0.000262988, No Iterations 1
smoothSolver:  Solving for omega, Initial residual = 1.06761e-06, Final residual = 4.76331e-08, No Iterations 3
smoothSolver:  Solving for k, Initial residual = 0.00242762, Final residual = 0.000187499, No Iterations 4
ExecutionTime = 2.92805 s  ClockTime = 3 s

Time = 62s

smoothSolver:  Solving for Ux, Initial residual = 0.000224798, Final residual = 1.64455e-05, No Iterations 5
smoothSolver:  Solving for Uy, Initial residual = 0.000303035, Final residual = 1.99732e-05, No Iterations 3
GAMG:  Solving for p, Initial residual = 0.00116616, Final residual = 9.46126e-05, No Iterations 10
time step continuity errors : sum local = 1.4032e-05, global = -1.42995e-06, cumulative = 0.000275282
smoothSolver:  Solving for ReThetat, Initial residual = 0.000264927, Final residual = 1.6188e-05, No Iterations 3
smoothSolver:  Solving for gammaInt, Initial residual = 0.00940291, Final residual = 0.000224002, No Iterations 1
smoothSolver:  Solving for omega, Initial residual = 1.10665e-06, Final residual = 4.98322e-08, No Iterations 3
smoothSolver:  Solving for k, Initial residual = 0.00252282, Final residual = 0.000198934, No Iterations 4
ExecutionTime = 2.97618 s  ClockTime = 3 s

Time = 63s

smoothSolver:  Solving for Ux, Initial residual = 0.000228187, Final residual = 1.72373e-05, No Iterations 5
smoothSolver:  Solving for Uy, Initial residual = 0.000295296, Final residual = 1.96345e-05, No Iterations 3
GAMG:  Solving for p, Initial residual = 0.00114224, Final residual = 9.39103e-05, No Iterations 10
time step continuity errors : sum local = 1.41744e-05, global = -1.41126e-06, cumulative = 0.00027387
smoothSolver:  Solving for ReThetat, Initial residual = 0.000215808, Final residual = 1.55774e-05, No Iterations 3
smoothSolver:  Solving for gammaInt, Initial residual = 0.00967658, Final residual = 0.000244162, No Iterations 1
smoothSolver:  Solving for omega, Initial residual = 1.13572e-06, Final residual = 5.17006e-08, No Iterations 3
smoothSolver:  Solving for k, Initial residual = 0.00262477, Final residual = 0.000209931, No Iterations 4
ExecutionTime = 3.0232 s  ClockTime = 3 s

Time = 64s

smoothSolver:  Solving for Ux, Initial residual = 0.000232576, Final residual = 1.80068e-05, No Iterations 5
smoothSolver:  Solving for Uy, Initial residual = 0.000288174, Final residual = 1.91872e-05, No Iterations 3
GAMG:  Solving for p, Initial residual = 0.00110692, Final residual = 9.32003e-05, No Iterations 10
time step continuity errors : sum local = 1.43433e-05, global = -1.3945e-06, cumulative = 0.000272476
smoothSolver:  Solving for ReThetat, Initial residual = 0.000175122, Final residual = 1.50438e-05, No Iterations 3
smoothSolver:  Solving for gammaInt, Initial residual = 0.00609234, Final residual = 0.000132945, No Iterations 1
smoothSolver:  Solving for omega, Initial residual = 1.16641e-06, Final residual = 5.33622e-08, No Iterations 3
smoothSolver:  Solving for k, Initial residual = 0.00264886, Final residual = 0.000217442, No Iterations 4
ExecutionTime = 3.07149 s  ClockTime = 4 s

Time = 65s

smoothSolver:  Solving for Ux, Initial residual = 0.000233442, Final residual = 1.86033e-05, No Iterations 5
smoothSolver:  Solving for Uy, Initial residual = 0.000281501, Final residual = 1.86099e-05, No Iterations 3
GAMG:  Solving for p, Initial residual = 0.00107245, Final residual = 9.28067e-05, No Iterations 10
time step continuity errors : sum local = 1.45838e-05, global = -1.38841e-06, cumulative = 0.000271088
smoothSolver:  Solving for ReThetat, Initial residual = 0.000142226, Final residual = 9.14317e-06, No Iterations 4
smoothSolver:  Solving for gammaInt, Initial residual = 0.00968959, Final residual = 0.000306511, No Iterations 1
smoothSolver:  Solving for omega, Initial residual = 1.17094e-06, Final residual = 5.39867e-08, No Iterations 3
smoothSolver:  Solving for k, Initial residual = 0.00274181, Final residual = 0.000228178, No Iterations 4
ExecutionTime = 3.11909 s  ClockTime = 4 s

Time = 66s

smoothSolver:  Solving for Ux, Initial residual = 0.000235358, Final residual = 1.91946e-05, No Iterations 5
smoothSolver:  Solving for Uy, Initial residual = 0.000275278, Final residual = 1.79107e-05, No Iterations 3
GAMG:  Solving for p, Initial residual = 0.00102236, Final residual = 9.09793e-05, No Iterations 10
time step continuity errors : sum local = 1.46145e-05, global = -1.37438e-06, cumulative = 0.000269713
smoothSolver:  Solving for ReThetat, Initial residual = 0.00011733, Final residual = 8.84834e-06, No Iterations 4
smoothSolver:  Solving for gammaInt, Initial residual = 0.00824611, Final residual = 0.000230173, No Iterations 1
smoothSolver:  Solving for omega, Initial residual = 1.17432e-06, Final residual = 5.46935e-08, No Iterations 3
smoothSolver:  Solving for k, Initial residual = 0.00280237, Final residual = 0.000236551, No Iterations 4
ExecutionTime = 3.16714 s  ClockTime = 4 s

Time = 67s

smoothSolver:  Solving for Ux, Initial residual = 0.000238058, Final residual = 1.96997e-05, No Iterations 5
smoothSolver:  Solving for Uy, Initial residual = 0.000269221, Final residual = 1.70784e-05, No Iterations 3
GAMG:  Solving for p, Initial residual = 0.0009959, Final residual = 8.88061e-05, No Iterations 10
time step continuity errors : sum local = 1.45932e-05, global = -1.36678e-06, cumulative = 0.000268346
smoothSolver:  Solving for ReThetat, Initial residual = 0.000104663, Final residual = 8.58094e-06, No Iterations 4
smoothSolver:  Solving for gammaInt, Initial residual = 0.00818386, Final residual = 0.000207517, No Iterations 1
smoothSolver:  Solving for omega, Initial residual = 1.1742e-06, Final residual = 5.50362e-08, No Iterations 3
smoothSolver:  Solving for k, Initial residual = 0.00284218, Final residual = 0.000243272, No Iterations 4
ExecutionTime = 3.21447 s  ClockTime = 4 s

Time = 68s

smoothSolver:  Solving for Ux, Initial residual = 0.000240831, Final residual = 2.01639e-05, No Iterations 5
smoothSolver:  Solving for Uy, Initial residual = 0.000262878, Final residual = 1.61577e-05, No Iterations 3
GAMG:  Solving for p, Initial residual = 0.000954849, Final residual = 8.58898e-05, No Iterations 10
time step continuity errors : sum local = 1.44466e-05, global = -1.34832e-06, cumulative = 0.000266998
smoothSolver:  Solving for ReThetat, Initial residual = 0.000107078, Final residual = 8.3369e-06, No Iterations 4
smoothSolver:  Solving for gammaInt, Initial residual = 0.00455212, Final residual = 9.51078e-05, No Iterations 1
smoothSolver:  Solving for omega, Initial residual = 1.17038e-06, Final residual = 5.53482e-08, No Iterations 3
smoothSolver:  Solving for k, Initial residual = 0.00281178, Final residual = 0.000246031, No Iterations 4
ExecutionTime = 3.26261 s  ClockTime = 4 s

Time = 69s

smoothSolver:  Solving for Ux, Initial residual = 0.000242331, Final residual = 2.04992e-05, No Iterations 5
smoothSolver:  Solving for Uy, Initial residual = 0.000256157, Final residual = 1.52117e-05, No Iterations 3
GAMG:  Solving for p, Initial residual = 0.000914091, Final residual = 8.2705e-05, No Iterations 10
time step continuity errors : sum local = 1.42433e-05, global = -1.32998e-06, cumulative = 0.000265668
smoothSolver:  Solving for ReThetat, Initial residual = 0.000111672, Final residual = 8.11135e-06, No Iterations 4
smoothSolver:  Solving for gammaInt, Initial residual = 0.00820864, Final residual = 0.000325615, No Iterations 1
smoothSolver:  Solving for omega, Initial residual = 1.15311e-06, Final residual = 5.51388e-08, No Iterations 3
smoothSolver:  Solving for k, Initial residual = 0.00286957, Final residual = 0.000253621, No Iterations 4
ExecutionTime = 3.30979 s  ClockTime = 4 s

Time = 70s

smoothSolver:  Solving for Ux, Initial residual = 0.000243773, Final residual = 2.08602e-05, No Iterations 5
smoothSolver:  Solving for Uy, Initial residual = 0.000248965, Final residual = 1.42461e-05, No Iterations 3
GAMG:  Solving for p, Initial residual = 0.00088046, Final residual = 7.84417e-05, No Iterations 10
time step continuity errors : sum local = 1.38319e-05, global = -1.28869e-06, cumulative = 0.000264379
smoothSolver:  Solving for ReThetat, Initial residual = 0.000115754, Final residual = 7.90757e-06, No Iterations 4
smoothSolver:  Solving for gammaInt, Initial residual = 0.00864634, Final residual = 0.000283871, No Iterations 1
smoothSolver:  Solving for omega, Initial residual = 1.13864e-06, Final residual = 5.52452e-08, No Iterations 3
smoothSolver:  Solving for k, Initial residual = 0.0029294, Final residual = 0.000260878, No Iterations 4
ExecutionTime = 3.35704 s  ClockTime = 4 s

Time = 71s

smoothSolver:  Solving for Ux, Initial residual = 0.000246518, Final residual = 2.12395e-05, No Iterations 5
smoothSolver:  Solving for Uy, Initial residual = 0.000241583, Final residual = 1.32828e-05, No Iterations 3
GAMG:  Solving for p, Initial residual = 0.000850204, Final residual = 7.48131e-05, No Iterations 10
time step continuity errors : sum local = 1.35053e-05, global = -1.2452e-06, cumulative = 0.000263134
smoothSolver:  Solving for ReThetat, Initial residual = 0.000119094, Final residual = 7.71965e-06, No Iterations 4
smoothSolver:  Solving for gammaInt, Initial residual = 0.00661677, Final residual = 0.000177412, No Iterations 1
smoothSolver:  Solving for omega, Initial residual = 1.13642e-06, Final residual = 5.5756e-08, No Iterations 3
smoothSolver:  Solving for k, Initial residual = 0.00292927, Final residual = 0.000264929, No Iterations 4
ExecutionTime = 3.40451 s  ClockTime = 4 s

Time = 72s

smoothSolver:  Solving for Ux, Initial residual = 0.000248074, Final residual = 2.15426e-05, No Iterations 5
smoothSolver:  Solving for Uy, Initial residual = 0.000234549, Final residual = 1.23557e-05, No Iterations 3
GAMG:  Solving for p, Initial residual = 0.0008206, Final residual = 7.11e-05, No Iterations 10
time step continuity errors : sum local = 1.31373e-05, global = -1.19894e-06, cumulative = 0.000261935
smoothSolver:  Solving for ReThetat, Initial residual = 0.000121681, Final residual = 1.17264e-05, No Iterations 3
smoothSolver:  Solving for gammaInt, Initial residual = 0.00383716, Final residual = 9.5824e-05, No Iterations 1
smoothSolver:  Solving for omega, Initial residual = 1.12673e-06, Final residual = 5.58896e-08, No Iterations 3
smoothSolver:  Solving for k, Initial residual = 0.00288077, Final residual = 0.000265264, No Iterations 4
ExecutionTime = 3.45181 s  ClockTime = 4 s

Time = 73s

smoothSolver:  Solving for Ux, Initial residual = 0.000249071, Final residual = 2.17526e-05, No Iterations 5
smoothSolver:  Solving for Uy, Initial residual = 0.000227899, Final residual = 2.21618e-05, No Iterations 2
GAMG:  Solving for p, Initial residual = 0.000833034, Final residual = 6.57955e-05, No Iterations 10
time step continuity errors : sum local = 1.24387e-05, global = -1.11239e-06, cumulative = 0.000260823
smoothSolver:  Solving for ReThetat, Initial residual = 0.00012426, Final residual = 1.15391e-05, No Iterations 3
smoothSolver:  Solving for gammaInt, Initial residual = 0.00279519, Final residual = 8.88729e-05, No Iterations 1
smoothSolver:  Solving for omega, Initial residual = 1.10505e-06, Final residual = 5.55516e-08, No Iterations 3
smoothSolver:  Solving for k, Initial residual = 0.00282553, Final residual = 0.000264397, No Iterations 4
ExecutionTime = 3.49995 s  ClockTime = 4 s

Time = 74s

smoothSolver:  Solving for Ux, Initial residual = 0.000249707, Final residual = 2.18898e-05, No Iterations 5
smoothSolver:  Solving for Uy, Initial residual = 0.000223673, Final residual = 2.14208e-05, No Iterations 2
GAMG:  Solving for p, Initial residual = 0.000757597, Final residual = 6.27012e-05, No Iterations 10
time step continuity errors : sum local = 1.21168e-05, global = -1.08525e-06, cumulative = 0.000259738
smoothSolver:  Solving for ReThetat, Initial residual = 0.000126558, Final residual = 1.1374e-05, No Iterations 3
smoothSolver:  Solving for gammaInt, Initial residual = 0.00925737, Final residual = 0.000413646, No Iterations 1
smoothSolver:  Solving for omega, Initial residual = 1.07845e-06, Final residual = 5.5018e-08, No Iterations 3
smoothSolver:  Solving for k, Initial residual = 0.00289744, Final residual = 0.00027155, No Iterations 4
ExecutionTime = 3.54832 s  ClockTime = 4 s

Time = 75s

smoothSolver:  Solving for Ux, Initial residual = 0.000250799, Final residual = 2.21071e-05, No Iterations 5
smoothSolver:  Solving for Uy, Initial residual = 0.000218296, Final residual = 2.05332e-05, No Iterations 2
GAMG:  Solving for p, Initial residual = 0.000728372, Final residual = 5.99419e-05, No Iterations 10
time step continuity errors : sum local = 1.18324e-05, global = -1.05871e-06, cumulative = 0.000258679
smoothSolver:  Solving for ReThetat, Initial residual = 0.000128532, Final residual = 1.12387e-05, No Iterations 3
smoothSolver:  Solving for gammaInt, Initial residual = 0.00719664, Final residual = 0.000246195, No Iterations 1
smoothSolver:  Solving for omega, Initial residual = 1.06898e-06, Final residual = 5.54172e-08, No Iterations 3
smoothSolver:  Solving for k, Initial residual = 0.002903, Final residual = 0.000274903, No Iterations 4
ExecutionTime = 3.59583 s  ClockTime = 4 s

Time = 76s

smoothSolver:  Solving for Ux, Initial residual = 0.000252068, Final residual = 2.23059e-05, No Iterations 5
smoothSolver:  Solving for Uy, Initial residual = 0.000212928, Final residual = 1.97274e-05, No Iterations 2
GAMG:  Solving for p, Initial residual = 0.000704988, Final residual = 5.71667e-05, No Iterations 10
time step continuity errors : sum local = 1.15218e-05, global = -1.0249e-06, cumulative = 0.000257654
smoothSolver:  Solving for ReThetat, Initial residual = 0.000130191, Final residual = 1.11286e-05, No Iterations 3
smoothSolver:  Solving for gammaInt, Initial residual = 0.0046379, Final residual = 0.000141093, No Iterations 1
smoothSolver:  Solving for omega, Initial residual = 1.062e-06, Final residual = 5.58917e-08, No Iterations 3
smoothSolver:  Solving for k, Initial residual = 0.0028649, Final residual = 0.000275058, No Iterations 4
ExecutionTime = 3.64468 s  ClockTime = 4 s

Time = 77s

smoothSolver:  Solving for Ux, Initial residual = 0.000252839, Final residual = 2.24514e-05, No Iterations 5
smoothSolver:  Solving for Uy, Initial residual = 0.000207934, Final residual = 1.90291e-05, No Iterations 2
GAMG:  Solving for p, Initial residual = 0.000687906, Final residual = 5.46814e-05, No Iterations 10
time step continuity errors : sum local = 1.12454e-05, global = -9.92816e-07, cumulative = 0.000256661
smoothSolver:  Solving for ReThetat, Initial residual = 0.000131795, Final residual = 1.10401e-05, No Iterations 3
smoothSolver:  Solving for gammaInt, Initial residual = 0.0028059, Final residual = 9.47876e-05, No Iterations 1
smoothSolver:  Solving for omega, Initial residual = 1.05337e-06, Final residual = 5.62128e-08, No Iterations 3
smoothSolver:  Solving for k, Initial residual = 0.00280862, Final residual = 0.000273538, No Iterations 4
ExecutionTime = 3.69191 s  ClockTime = 4 s

Time = 78s

smoothSolver:  Solving for Ux, Initial residual = 0.000252918, Final residual = 2.25345e-05, No Iterations 5
smoothSolver:  Solving for Uy, Initial residual = 0.000203169, Final residual = 1.84413e-05, No Iterations 2
GAMG:  Solving for p, Initial residual = 0.000667199, Final residual = 5.22048e-05, No Iterations 10
time step continuity errors : sum local = 1.09476e-05, global = -9.60173e-07, cumulative = 0.000255701
smoothSolver:  Solving for ReThetat, Initial residual = 0.000133008, Final residual = 1.09731e-05, No Iterations 3
smoothSolver:  Solving for gammaInt, Initial residual = 0.00319125, Final residual = 0.000150118, No Iterations 1
smoothSolver:  Solving for omega, Initial residual = 1.03999e-06, Final residual = 5.63281e-08, No Iterations 3
smoothSolver:  Solving for k, Initial residual = 0.0027767, Final residual = 0.000273052, No Iterations 4
ExecutionTime = 3.73918 s  ClockTime = 4 s

Time = 79s

smoothSolver:  Solving for Ux, Initial residual = 0.000252459, Final residual = 2.25861e-05, No Iterations 5
smoothSolver:  Solving for Uy, Initial residual = 0.000198838, Final residual = 1.79266e-05, No Iterations 2
GAMG:  Solving for p, Initial residual = 0.000648571, Final residual = 4.99278e-05, No Iterations 10
time step continuity errors : sum local = 1.06691e-05, global = -9.30468e-07, cumulative = 0.000254771
smoothSolver:  Solving for ReThetat, Initial residual = 0.000134027, Final residual = 1.09217e-05, No Iterations 3
smoothSolver:  Solving for gammaInt, Initial residual = 0.00448768, Final residual = 0.00023761, No Iterations 1
smoothSolver:  Solving for omega, Initial residual = 1.02888e-06, Final residual = 5.65116e-08, No Iterations 3
smoothSolver:  Solving for k, Initial residual = 0.00276211, Final residual = 0.000273743, No Iterations 4
ExecutionTime = 3.78562 s  ClockTime = 4 s

Time = 80s

smoothSolver:  Solving for Ux, Initial residual = 0.000251747, Final residual = 2.26237e-05, No Iterations 5
smoothSolver:  Solving for Uy, Initial residual = 0.000195, Final residual = 1.74913e-05, No Iterations 2
GAMG:  Solving for p, Initial residual = 0.000634066, Final residual = 4.78496e-05, No Iterations 10
time step continuity errors : sum local = 1.04126e-05, global = -9.06013e-07, cumulative = 0.000253865
smoothSolver:  Solving for ReThetat, Initial residual = 0.000134865, Final residual = 1.08845e-05, No Iterations 3
smoothSolver:  Solving for gammaInt, Initial residual = 0.00653882, Final residual = 0.00030168, No Iterations 1
smoothSolver:  Solving for omega, Initial residual = 1.01946e-06, Final residual = 5.67635e-08, No Iterations 3
smoothSolver:  Solving for k, Initial residual = 0.00276232, Final residual = 0.000275527, No Iterations 4
ExecutionTime = 3.83132 s  ClockTime = 4 s

Time = 81s

smoothSolver:  Solving for Ux, Initial residual = 0.000250933, Final residual = 2.26622e-05, No Iterations 5
smoothSolver:  Solving for Uy, Initial residual = 0.000191851, Final residual = 1.71096e-05, No Iterations 2
GAMG:  Solving for p, Initial residual = 0.000619415, Final residual = 4.61487e-05, No Iterations 10
time step continuity errors : sum local = 1.02201e-05, global = -8.85542e-07, cumulative = 0.000252979
smoothSolver:  Solving for ReThetat, Initial residual = 0.000135643, Final residual = 1.08596e-05, No Iterations 3
smoothSolver:  Solving for gammaInt, Initial residual = 0.00513837, Final residual = 0.000204731, No Iterations 1
smoothSolver:  Solving for omega, Initial residual = 1.01303e-06, Final residual = 5.70921e-08, No Iterations 3
smoothSolver:  Solving for k, Initial residual = 0.00273419, Final residual = 0.000156645, No Iterations 5
ExecutionTime = 3.87775 s  ClockTime = 4 s

Time = 82s

smoothSolver:  Solving for Ux, Initial residual = 0.000250541, Final residual = 2.27245e-05, No Iterations 5
smoothSolver:  Solving for Uy, Initial residual = 0.000189564, Final residual = 1.67919e-05, No Iterations 2
GAMG:  Solving for p, Initial residual = 0.000611191, Final residual = 4.48899e-05, No Iterations 10
time step continuity errors : sum local = 1.01111e-05, global = -8.69453e-07, cumulative = 0.00025211
smoothSolver:  Solving for ReThetat, Initial residual = 0.000136429, Final residual = 1.08541e-05, No Iterations 3
smoothSolver:  Solving for gammaInt, Initial residual = 0.00307681, Final residual = 0.0001214, No Iterations 1
smoothSolver:  Solving for omega, Initial residual = 1.01201e-06, Final residual = 5.73894e-08, No Iterations 3
smoothSolver:  Solving for k, Initial residual = 0.00267841, Final residual = 0.000155429, No Iterations 5
ExecutionTime = 3.92467 s  ClockTime = 4 s

Time = 83s

smoothSolver:  Solving for Ux, Initial residual = 0.000249822, Final residual = 2.27324e-05, No Iterations 5
smoothSolver:  Solving for Uy, Initial residual = 0.000188038, Final residual = 1.65222e-05, No Iterations 2
GAMG:  Solving for p, Initial residual = 0.000601195, Final residual = 4.36069e-05, No Iterations 10
time step continuity errors : sum local = 9.98597e-06, global = -8.55707e-07, cumulative = 0.000251254
smoothSolver:  Solving for ReThetat, Initial residual = 0.000137016, Final residual = 1.08534e-05, No Iterations 3
smoothSolver:  Solving for gammaInt, Initial residual = 0.00243575, Final residual = 0.000112602, No Iterations 1
smoothSolver:  Solving for omega, Initial residual = 1.00328e-06, Final residual = 5.7453e-08, No Iterations 3
smoothSolver:  Solving for k, Initial residual = 0.00261572, Final residual = 0.000153576, No Iterations 5
ExecutionTime = 3.97193 s  ClockTime = 4 s

Time = 84s

smoothSolver:  Solving for Ux, Initial residual = 0.000248564, Final residual = 2.26876e-05, No Iterations 5
smoothSolver:  Solving for Uy, Initial residual = 0.000186839, Final residual = 1.62734e-05, No Iterations 2
GAMG:  Solving for p, Initial residual = 0.000592706, Final residual = 4.24585e-05, No Iterations 10
time step continuity errors : sum local = 9.88007e-06, global = -8.40771e-07, cumulative = 0.000250413
smoothSolver:  Solving for ReThetat, Initial residual = 0.000137279, Final residual = 1.08526e-05, No Iterations 3
smoothSolver:  Solving for gammaInt, Initial residual = 0.00363466, Final residual = 0.000158043, No Iterations 1
smoothSolver:  Solving for omega, Initial residual = 9.89046e-07, Final residual = 5.74114e-08, No Iterations 3
smoothSolver:  Solving for k, Initial residual = 0.00256641, Final residual = 0.000151838, No Iterations 5
ExecutionTime = 4.01854 s  ClockTime = 4 s

Time = 85s

smoothSolver:  Solving for Ux, Initial residual = 0.000246847, Final residual = 2.26073e-05, No Iterations 5
smoothSolver:  Solving for Uy, Initial residual = 0.000185643, Final residual = 1.60213e-05, No Iterations 2
GAMG:  Solving for p, Initial residual = 0.000581211, Final residual = 4.15507e-05, No Iterations 10
time step continuity errors : sum local = 9.81964e-06, global = -8.30544e-07, cumulative = 0.000249583
smoothSolver:  Solving for ReThetat, Initial residual = 0.000137214, Final residual = 1.08484e-05, No Iterations 3
smoothSolver:  Solving for gammaInt, Initial residual = 0.00215847, Final residual = 7.86246e-05, No Iterations 1
smoothSolver:  Solving for omega, Initial residual = 9.74099e-07, Final residual = 5.73501e-08, No Iterations 3
smoothSolver:  Solving for k, Initial residual = 0.00248926, Final residual = 0.000148897, No Iterations 5
ExecutionTime = 4.06569 s  ClockTime = 5 s

Time = 86s

smoothSolver:  Solving for Ux, Initial residual = 0.000244687, Final residual = 2.24731e-05, No Iterations 5
smoothSolver:  Solving for Uy, Initial residual = 0.000184468, Final residual = 1.57508e-05, No Iterations 2
[...]
time step continuity errors : sum local = 3.35662e-07, global = -4.97082e-08, cumulative = 0.000152903
smoothSolver:  Solving for ReThetat, Initial residual = 8.64483e-06, Final residual = 6.81725e-07, No Iterations 6
smoothSolver:  Solving for gammaInt, Initial residual = 5.00324e-06, Final residual = 1.82454e-07, No Iterations 1
bounding gammaInt, min: -0.000418334 max: 1.00033 average: 0.840473
smoothSolver:  Solving for omega, Initial residual = 1.09872e-08, Final residual = 4.18728e-09, No Iterations 1
smoothSolver:  Solving for k, Initial residual = 5.8245e-06, Final residual = 5.81327e-07, No Iterations 4
ExecutionTime = 12.1154 s  ClockTime = 13 s

Time = 263s

smoothSolver:  Solving for Ux, Initial residual = 1.39235e-06, Final residual = 1.36525e-07, No Iterations 5
smoothSolver:  Solving for Uy, Initial residual = 2.08497e-06, Final residual = 1.61169e-07, No Iterations 2
GAMG:  Solving for p, Initial residual = 1.15232e-05, Final residual = 1.15148e-06, No Iterations 6
time step continuity errors : sum local = 4.42478e-07, global = -7.76397e-08, cumulative = 0.000152825
smoothSolver:  Solving for ReThetat, Initial residual = 8.47523e-06, Final residual = 6.76387e-07, No Iterations 6
smoothSolver:  Solving for gammaInt, Initial residual = 6.42437e-06, Final residual = 2.08111e-07, No Iterations 1
smoothSolver:  Solving for omega, Initial residual = 6.24269e-09, Final residual = 6.24269e-09, No Iterations 0
smoothSolver:  Solving for k, Initial residual = 5.63305e-06, Final residual = 5.61397e-07, No Iterations 4
ExecutionTime = 12.1591 s  ClockTime = 13 s

Time = 264s

smoothSolver:  Solving for Ux, Initial residual = 1.33863e-06, Final residual = 1.3235e-07, No Iterations 5
smoothSolver:  Solving for Uy, Initial residual = 1.95937e-06, Final residual = 1.5243e-07, No Iterations 2
GAMG:  Solving for p, Initial residual = 1.11102e-05, Final residual = 8.0923e-07, No Iterations 8
time step continuity errors : sum local = 3.10979e-07, global = -4.58506e-08, cumulative = 0.00015278
smoothSolver:  Solving for ReThetat, Initial residual = 8.27927e-06, Final residual = 6.72536e-07, No Iterations 6
smoothSolver:  Solving for gammaInt, Initial residual = 5.28801e-06, Final residual = 1.80952e-07, No Iterations 1
bounding gammaInt, min: -0.000534792 max: 1.00033 average: 0.840474
smoothSolver:  Solving for omega, Initial residual = 8.28775e-09, Final residual = 8.28775e-09, No Iterations 0
smoothSolver:  Solving for k, Initial residual = 5.59785e-06, Final residual = 5.54556e-07, No Iterations 4
ExecutionTime = 12.2053 s  ClockTime = 13 s

Time = 265s

smoothSolver:  Solving for Ux, Initial residual = 1.29678e-06, Final residual = 1.28278e-07, No Iterations 5
smoothSolver:  Solving for Uy, Initial residual = 1.91002e-06, Final residual = 1.48711e-07, No Iterations 2
GAMG:  Solving for p, Initial residual = 1.06816e-05, Final residual = 1.05134e-06, No Iterations 6
time step continuity errors : sum local = 4.04049e-07, global = -7.18639e-08, cumulative = 0.000152708
smoothSolver:  Solving for ReThetat, Initial residual = 8.3077e-06, Final residual = 6.68155e-07, No Iterations 6
smoothSolver:  Solving for gammaInt, Initial residual = 5.2276e-06, Final residual = 1.97986e-07, No Iterations 1
smoothSolver:  Solving for omega, Initial residual = 1.04047e-08, Final residual = 3.92221e-09, No Iterations 1
smoothSolver:  Solving for k, Initial residual = 5.2284e-06, Final residual = 3.04746e-07, No Iterations 5
ExecutionTime = 12.2486 s  ClockTime = 13 s

Time = 266s

smoothSolver:  Solving for Ux, Initial residual = 1.25643e-06, Final residual = 1.24926e-07, No Iterations 5
smoothSolver:  Solving for Uy, Initial residual = 1.79431e-06, Final residual = 1.39636e-07, No Iterations 2
GAMG:  Solving for p, Initial residual = 1.01334e-05, Final residual = 7.4841e-07, No Iterations 8
time step continuity errors : sum local = 2.87644e-07, global = -4.20328e-08, cumulative = 0.000152666
smoothSolver:  Solving for ReThetat, Initial residual = 8.18854e-06, Final residual = 6.63191e-07, No Iterations 6
smoothSolver:  Solving for gammaInt, Initial residual = 5.96709e-06, Final residual = 1.82504e-07, No Iterations 1
bounding gammaInt, min: -0.000982427 max: 1.00033 average: 0.840474
smoothSolver:  Solving for omega, Initial residual = 5.89295e-09, Final residual = 5.89295e-09, No Iterations 0
smoothSolver:  Solving for k, Initial residual = 5.06695e-06, Final residual = 2.94318e-07, No Iterations 5
ExecutionTime = 12.2937 s  ClockTime = 13 s

Time = 267s

smoothSolver:  Solving for Ux, Initial residual = 1.21536e-06, Final residual = 1.21047e-07, No Iterations 5
smoothSolver:  Solving for Uy, Initial residual = 1.74407e-06, Final residual = 1.36611e-07, No Iterations 2
GAMG:  Solving for p, Initial residual = 9.74838e-06, Final residual = 9.74083e-07, No Iterations 6
time step continuity errors : sum local = 3.74406e-07, global = -6.65875e-08, cumulative = 0.000152599
smoothSolver:  Solving for ReThetat, Initial residual = 8.00729e-06, Final residual = 6.59538e-07, No Iterations 6
smoothSolver:  Solving for gammaInt, Initial residual = 5.29664e-06, Final residual = 1.9636e-07, No Iterations 1
smoothSolver:  Solving for omega, Initial residual = 7.49568e-09, Final residual = 7.49568e-09, No Iterations 0
smoothSolver:  Solving for k, Initial residual = 4.97171e-06, Final residual = 4.95922e-07, No Iterations 4
ExecutionTime = 12.3356 s  ClockTime = 13 s

Time = 268s

smoothSolver:  Solving for Ux, Initial residual = 1.16834e-06, Final residual = 7.68722e-08, No Iterations 6
smoothSolver:  Solving for Uy, Initial residual = 1.64093e-06, Final residual = 1.29262e-07, No Iterations 2
GAMG:  Solving for p, Initial residual = 9.41455e-06, Final residual = 7.02454e-07, No Iterations 8
time step continuity errors : sum local = 2.70014e-07, global = -3.84155e-08, cumulative = 0.000152561
smoothSolver:  Solving for ReThetat, Initial residual = 8.06098e-06, Final residual = 6.55427e-07, No Iterations 6
smoothSolver:  Solving for gammaInt, Initial residual = 4.9116e-06, Final residual = 1.74171e-07, No Iterations 1
bounding gammaInt, min: -0.00125766 max: 1.00033 average: 0.840474
smoothSolver:  Solving for omega, Initial residual = 9.46461e-09, Final residual = 9.46461e-09, No Iterations 0
smoothSolver:  Solving for k, Initial residual = 4.99472e-06, Final residual = 4.94514e-07, No Iterations 4
ExecutionTime = 12.3807 s  ClockTime = 13 s

Time = 269s

smoothSolver:  Solving for Ux, Initial residual = 1.13342e-06, Final residual = 7.4379e-08, No Iterations 6
smoothSolver:  Solving for Uy, Initial residual = 1.63298e-06, Final residual = 1.29021e-07, No Iterations 2
GAMG:  Solving for p, Initial residual = 9.11761e-06, Final residual = 9.1746e-07, No Iterations 6
time step continuity errors : sum local = 3.52686e-07, global = -6.26149e-08, cumulative = 0.000152498
smoothSolver:  Solving for ReThetat, Initial residual = 8.09177e-06, Final residual = 6.50914e-07, No Iterations 6
smoothSolver:  Solving for gammaInt, Initial residual = 4.95429e-06, Final residual = 1.93037e-07, No Iterations 1
smoothSolver:  Solving for omega, Initial residual = 1.13284e-08, Final residual = 4.14397e-09, No Iterations 1
smoothSolver:  Solving for k, Initial residual = 4.62317e-06, Final residual = 2.712e-07, No Iterations 5
ExecutionTime = 12.4225 s  ClockTime = 13 s

Time = 270s

smoothSolver:  Solving for Ux, Initial residual = 1.10147e-06, Final residual = 7.2381e-08, No Iterations 6
smoothSolver:  Solving for Uy, Initial residual = 1.54494e-06, Final residual = 1.22094e-07, No Iterations 2
GAMG:  Solving for p, Initial residual = 8.71826e-06, Final residual = 9.65409e-07, No Iterations 6
time step continuity errors : sum local = 3.71136e-07, global = -6.45053e-08, cumulative = 0.000152434
smoothSolver:  Solving for ReThetat, Initial residual = 7.90874e-06, Final residual = 6.45931e-07, No Iterations 6
smoothSolver:  Solving for gammaInt, Initial residual = 5.77363e-06, Final residual = 1.77409e-07, No Iterations 1
bounding gammaInt, min: -0.0015385 max: 1.00033 average: 0.840475
smoothSolver:  Solving for omega, Initial residual = 5.97922e-09, Final residual = 5.97922e-09, No Iterations 0
smoothSolver:  Solving for k, Initial residual = 4.53184e-06, Final residual = 2.64349e-07, No Iterations 5
ExecutionTime = 12.4661 s  ClockTime = 13 s

Time = 271s

smoothSolver:  Solving for Ux, Initial residual = 1.06001e-06, Final residual = 7.00294e-08, No Iterations 6
smoothSolver:  Solving for Uy, Initial residual = 1.48773e-06, Final residual = 1.18974e-07, No Iterations 2
GAMG:  Solving for p, Initial residual = 8.44945e-06, Final residual = 9.54349e-07, No Iterations 6
time step continuity errors : sum local = 3.66905e-07, global = -6.28791e-08, cumulative = 0.000152371
smoothSolver:  Solving for ReThetat, Initial residual = 7.71064e-06, Final residual = 6.42389e-07, No Iterations 6
smoothSolver:  Solving for gammaInt, Initial residual = 5.12177e-06, Final residual = 1.92334e-07, No Iterations 1
smoothSolver:  Solving for omega, Initial residual = 7.11293e-09, Final residual = 7.11293e-09, No Iterations 0
smoothSolver:  Solving for k, Initial residual = 4.4251e-06, Final residual = 2.56263e-07, No Iterations 5
ExecutionTime = 12.5107 s  ClockTime = 13 s

Time = 272s

smoothSolver:  Solving for Ux, Initial residual = 1.02192e-06, Final residual = 6.77158e-08, No Iterations 6
smoothSolver:  Solving for Uy, Initial residual = 1.43742e-06, Final residual = 1.15647e-07, No Iterations 2
GAMG:  Solving for p, Initial residual = 8.19969e-06, Final residual = 9.24933e-07, No Iterations 6
time step continuity errors : sum local = 3.55616e-07, global = -6.03975e-08, cumulative = 0.00015231
smoothSolver:  Solving for ReThetat, Initial residual = 7.72182e-06, Final residual = 6.38459e-07, No Iterations 6
smoothSolver:  Solving for gammaInt, Initial residual = 4.74394e-06, Final residual = 1.70273e-07, No Iterations 1
bounding gammaInt, min: -0.00180565 max: 1.00033 average: 0.840475
smoothSolver:  Solving for omega, Initial residual = 8.71639e-09, Final residual = 8.71639e-09, No Iterations 0
smoothSolver:  Solving for k, Initial residual = 4.37674e-06, Final residual = 4.36437e-07, No Iterations 4
ExecutionTime = 12.554 s  ClockTime = 13 s

Time = 273s

smoothSolver:  Solving for Ux, Initial residual = 9.85061e-07, Final residual = 6.54823e-08, No Iterations 6
smoothSolver:  Solving for Uy, Initial residual = 1.38364e-06, Final residual = 1.11847e-07, No Iterations 2
GAMG:  Solving for p, Initial residual = 7.89937e-06, Final residual = 8.88153e-07, No Iterations 6
time step continuity errors : sum local = 3.41494e-07, global = -5.76976e-08, cumulative = 0.000152253
smoothSolver:  Solving for ReThetat, Initial residual = 7.74909e-06, Final residual = 6.34206e-07, No Iterations 6
smoothSolver:  Solving for gammaInt, Initial residual = 4.77896e-06, Final residual = 1.8894e-07, No Iterations 1
smoothSolver:  Solving for omega, Initial residual = 1.0334e-08, Final residual = 3.92395e-09, No Iterations 1
smoothSolver:  Solving for k, Initial residual = 4.12456e-06, Final residual = 2.43689e-07, No Iterations 5
ExecutionTime = 12.5981 s  ClockTime = 13 s

Time = 274s

smoothSolver:  Solving for Ux, Initial residual = 9.63611e-07, Final residual = 6.36957e-08, No Iterations 6
smoothSolver:  Solving for Uy, Initial residual = 1.32387e-06, Final residual = 1.06786e-07, No Iterations 2
GAMG:  Solving for p, Initial residual = 7.50396e-06, Final residual = 8.5666e-07, No Iterations 6
time step continuity errors : sum local = 3.29402e-07, global = -5.54125e-08, cumulative = 0.000152197
smoothSolver:  Solving for ReThetat, Initial residual = 7.58782e-06, Final residual = 6.29552e-07, No Iterations 6
smoothSolver:  Solving for gammaInt, Initial residual = 5.53067e-06, Final residual = 1.71895e-07, No Iterations 1
bounding gammaInt, min: -0.00205602 max: 1.00033 average: 0.840475
smoothSolver:  Solving for omega, Initial residual = 5.48684e-09, Final residual = 5.48684e-09, No Iterations 0
smoothSolver:  Solving for k, Initial residual = 4.06999e-06, Final residual = 2.38987e-07, No Iterations 5
ExecutionTime = 12.6404 s  ClockTime = 13 s

Time = 275s

smoothSolver:  Solving for Ux, Initial residual = 9.24542e-07, Final residual = 6.15934e-08, No Iterations 6
smoothSolver:  Solving for Uy, Initial residual = 1.2623e-06, Final residual = 1.03168e-07, No Iterations 2
GAMG:  Solving for p, Initial residual = 7.21752e-06, Final residual = 8.27341e-07, No Iterations 6
time step continuity errors : sum local = 3.18145e-07, global = -5.31995e-08, cumulative = 0.000152144
smoothSolver:  Solving for ReThetat, Initial residual = 7.43555e-06, Final residual = 6.26134e-07, No Iterations 6
smoothSolver:  Solving for gammaInt, Initial residual = 4.97057e-06, Final residual = 1.87743e-07, No Iterations 1
smoothSolver:  Solving for omega, Initial residual = 6.62247e-09, Final residual = 6.62247e-09, No Iterations 0
smoothSolver:  Solving for k, Initial residual = 3.9104e-06, Final residual = 2.28568e-07, No Iterations 5
ExecutionTime = 12.6839 s  ClockTime = 13 s

Time = 276s

smoothSolver:  Solving for Ux, Initial residual = 8.8953e-07, Final residual = 5.95207e-08, No Iterations 6
smoothSolver:  Solving for Uy, Initial residual = 1.21079e-06, Final residual = 9.95893e-08, No Iterations 2
GAMG:  Solving for p, Initial residual = 7.00445e-06, Final residual = 7.98152e-07, No Iterations 6
time step continuity errors : sum local = 3.06935e-07, global = -5.10653e-08, cumulative = 0.000152093
smoothSolver:  Solving for ReThetat, Initial residual = 7.4336e-06, Final residual = 6.22393e-07, No Iterations 6
smoothSolver:  Solving for gammaInt, Initial residual = 4.56247e-06, Final residual = 1.64672e-07, No Iterations 1
bounding gammaInt, min: -0.00229046 max: 1.00033 average: 0.840475
smoothSolver:  Solving for omega, Initial residual = 8.10658e-09, Final residual = 8.10658e-09, No Iterations 0
smoothSolver:  Solving for k, Initial residual = 3.82362e-06, Final residual = 2.21868e-07, No Iterations 5
ExecutionTime = 12.7282 s  ClockTime = 13 s

Time = 277s

smoothSolver:  Solving for Ux, Initial residual = 8.57126e-07, Final residual = 5.75037e-08, No Iterations 6
smoothSolver:  Solving for Uy, Initial residual = 1.16635e-06, Final residual = 9.6231e-08, No Iterations 2
GAMG:  Solving for p, Initial residual = 6.76366e-06, Final residual = 7.6808e-07, No Iterations 6
time step continuity errors : sum local = 2.95385e-07, global = -4.90485e-08, cumulative = 0.000152044
smoothSolver:  Solving for ReThetat, Initial residual = 7.44568e-06, Final residual = 6.18377e-07, No Iterations 6
smoothSolver:  Solving for gammaInt, Initial residual = 4.61777e-06, Final residual = 1.84159e-07, No Iterations 1
smoothSolver:  Solving for omega, Initial residual = 9.52298e-09, Final residual = 9.52298e-09, No Iterations 0
smoothSolver:  Solving for k, Initial residual = 3.77115e-06, Final residual = 3.7609e-07, No Iterations 4
ExecutionTime = 12.7704 s  ClockTime = 13 s

Time = 278s

smoothSolver:  Solving for Ux, Initial residual = 8.25856e-07, Final residual = 5.55292e-08, No Iterations 6
smoothSolver:  Solving for Uy, Initial residual = 1.1248e-06, Final residual = 9.27491e-08, No Iterations 2
GAMG:  Solving for p, Initial residual = 6.54275e-06, Final residual = 7.31805e-07, No Iterations 6
time step continuity errors : sum local = 2.81447e-07, global = -4.6489e-08, cumulative = 0.000151997
smoothSolver:  Solving for ReThetat, Initial residual = 7.43727e-06, Final residual = 6.14142e-07, No Iterations 6
smoothSolver:  Solving for gammaInt, Initial residual = 4.34307e-06, Final residual = 1.61272e-07, No Iterations 1
bounding gammaInt, min: -0.00250865 max: 1.00033 average: 0.840475
smoothSolver:  Solving for omega, Initial residual = 1.08915e-08, Final residual = 3.9897e-09, No Iterations 1
smoothSolver:  Solving for k, Initial residual = 3.62165e-06, Final residual = 2.16157e-07, No Iterations 5
ExecutionTime = 12.8135 s  ClockTime = 13 s

Time = 279s

smoothSolver:  Solving for Ux, Initial residual = 8.12876e-07, Final residual = 5.40221e-08, No Iterations 6
smoothSolver:  Solving for Uy, Initial residual = 1.08253e-06, Final residual = 8.85593e-08, No Iterations 2
GAMG:  Solving for p, Initial residual = 6.19726e-06, Final residual = 7.15534e-07, No Iterations 6
time step continuity errors : sum local = 2.75202e-07, global = -4.55033e-08, cumulative = 0.000151952
smoothSolver:  Solving for ReThetat, Initial residual = 7.25884e-06, Final residual = 6.09604e-07, No Iterations 6
smoothSolver:  Solving for gammaInt, Initial residual = 5.50087e-06, Final residual = 1.86583e-07, No Iterations 1
smoothSolver:  Solving for omega, Initial residual = 5.55766e-09, Final residual = 5.55766e-09, No Iterations 0
smoothSolver:  Solving for k, Initial residual = 3.64435e-06, Final residual = 2.15168e-07, No Iterations 5
ExecutionTime = 12.8561 s  ClockTime = 13 s

Time = 280s

smoothSolver:  Solving for Ux, Initial residual = 7.78967e-07, Final residual = 5.21829e-08, No Iterations 6
smoothSolver:  Solving for Uy, Initial residual = 1.03813e-06, Final residual = 8.56896e-08, No Iterations 2
GAMG:  Solving for p, Initial residual = 6.02141e-06, Final residual = 6.84685e-07, No Iterations 6
time step continuity errors : sum local = 2.63348e-07, global = -4.32013e-08, cumulative = 0.000151909
smoothSolver:  Solving for ReThetat, Initial residual = 7.12675e-06, Final residual = 6.06214e-07, No Iterations 6
smoothSolver:  Solving for gammaInt, Initial residual = 4.59874e-06, Final residual = 1.60152e-07, No Iterations 1
bounding gammaInt, min: -0.00273093 max: 1.00033 average: 0.840476
smoothSolver:  Solving for omega, Initial residual = 6.27624e-09, Final residual = 6.27624e-09, No Iterations 0
smoothSolver:  Solving for k, Initial residual = 3.43961e-06, Final residual = 2.03881e-07, No Iterations 5
ExecutionTime = 12.8994 s  ClockTime = 13 s

Time = 281s

smoothSolver:  Solving for Ux, Initial residual = 7.48724e-07, Final residual = 5.04013e-08, No Iterations 6
smoothSolver:  Solving for Uy, Initial residual = 1.00118e-06, Final residual = 8.30442e-08, No Iterations 2
GAMG:  Solving for p, Initial residual = 5.82171e-06, Final residual = 6.59209e-07, No Iterations 6
time step continuity errors : sum local = 2.5356e-07, global = -4.15534e-08, cumulative = 0.000151867
smoothSolver:  Solving for ReThetat, Initial residual = 7.10846e-06, Final residual = 6.02579e-07, No Iterations 6
smoothSolver:  Solving for gammaInt, Initial residual = 4.5558e-06, Final residual = 1.79291e-07, No Iterations 1
smoothSolver:  Solving for omega, Initial residual = 7.24795e-09, Final residual = 7.24795e-09, No Iterations 0
smoothSolver:  Solving for k, Initial residual = 3.32649e-06, Final residual = 1.95758e-07, No Iterations 5
ExecutionTime = 12.9433 s  ClockTime = 13 s

Time = 282s

smoothSolver:  Solving for Ux, Initial residual = 7.20594e-07, Final residual = 4.86348e-08, No Iterations 6
smoothSolver:  Solving for Uy, Initial residual = 9.67118e-07, Final residual = 8.02807e-08, No Iterations 2
GAMG:  Solving for p, Initial residual = 5.6718e-06, Final residual = 9.97823e-07, No Iterations 4
time step continuity errors : sum local = 3.83821e-07, global = -8.12746e-08, cumulative = 0.000151786
smoothSolver:  Solving for ReThetat, Initial residual = 7.09306e-06, Final residual = 5.98732e-07, No Iterations 6
smoothSolver:  Solving for gammaInt, Initial residual = 4.22581e-06, Final residual = 1.55676e-07, No Iterations 1
bounding gammaInt, min: -0.00293497 max: 1.00033 average: 0.840475
smoothSolver:  Solving for omega, Initial residual = 8.39162e-09, Final residual = 8.39162e-09, No Iterations 0
smoothSolver:  Solving for k, Initial residual = 3.24421e-06, Final residual = 1.89782e-07, No Iterations 5
ExecutionTime = 12.9841 s  ClockTime = 13 s


SIMPLE solution converged in 282 iterations

End

